MODEL 1
USER: ADFR SOLUTION from run 28
USER: SCORE 22.673733 LL:  -4.569 LR: -20.754 RR:   0.000 FEB: -12.998
USER: RMSD 0.839399
USER: SEED 27
USER: STATUS 1 or 2 clusters left
USER: GENES 28
USER: genes 0 Translation |==|  0.58253 0.63631 0.55126
USER: genes 1 Rotation |==|  0.48634 0.47804 0.48904 0.99921
USER: genes 2 Torsion [CB]-CA--N-[C] |==|  0.21586
USER: genes 3 Torsion [N]-C--CA-[N] |==|  0.41619
USER: genes 4 Torsion [C]-CA--N-[C] |==|  0.62528
USER: genes 5 Torsion [N]-C--CA-[N] |==|  0.46332
USER: genes 6 Torsion [C]-CA--N-[C] |==|  0.66948
USER: genes 7 Torsion [N]-C--CA-[N] |==|  0.42116
USER: genes 8 Torsion [C]-CA--CB-[CG] |==|  0.40713
USER: genes 9 Torsion [CA]-CB--CG-[CD] |==|  0.53226
USER: genes 10 Torsion [CB]-CG--CD-[OE1] |==|  0.96723
USER: genes 11 Torsion [C]-CA--N-[C] |==|  0.70144
USER: genes 12 Torsion [C]-CA--CB-[CG] |==|  0.41995
USER: genes 13 Torsion [CA]-CB--CG-[CD] |==|  0.35428
USER: genes 14 Torsion [CB]-CG--CD-[OE1] |==|  0.83925
USER: genes 15 Torsion [N]-CA--C-[N] |==|  0.30349
USER: genes 16 Torsion [C]-N--CA-[CB] |==|  0.47004
USER: genes 17 Torsion [N]-CA--CB-[CG] |==|  0.44176
USER: genes 18 Torsion [CA]-CB--CG-[CD] |==|  0.36854
USER: genes 19 Torsion [CB]-CG--CD-[NE] |==|  0.80078
USER: genes 20 Torsion [CG]-CD--NE-[HE] |==|  0.02982
USER: genes 21 Torsion [N]-CA--C-[N] |==|  0.39534
USER: genes 22 Torsion [C]-N--CA-[CB] |==|  0.26544
USER: genes 23 Torsion [N]-CA--CB-[CG] |==|  0.82353
USER: genes 24 Torsion [CA]-CB--CG-[CD1] |==|  0.39983
USER: genes 25 Torsion [N]-CA--C-[OXT] |==|  0.91468
USER: genes 26 Torsion [N]-CA--CB-[OG1] |==|  0.82054
USER: genes 27 Torsion [CA]-CB--OG1-[HG1] |==|  0.22956
ROOT
ATOM      1  CA  THR B 990       2.383  -8.410 -21.119  1.00 21.72 LIG 0.20  C 
ENDROOT
BRANCH 1 2
ATOM      2  N   THR B 990       1.347  -9.032 -21.939  1.00 18.80 LIG-0.34  N 
ATOM      3  C   GLN B 989       0.667  -8.353 -22.859  1.00 20.29 LIG 0.24  C 
ATOM      4 O    GLN B 989       0.884  -7.163 -23.115  1.00 25.34 LIG-0.27  OA
ATOM      5 H    THR B 990       1.220  -9.866 -21.773  1.00 18.80 LIG 0.16  HD
BRANCH 3 6
ATOM      6  CA  GLN B 989      -0.406  -9.116 -23.626  1.00 20.93 LIG 0.18  C 
BRANCH 6 7
ATOM      7  N   GLN B 989      -1.462  -8.183 -24.003  1.00 21.51 LIG-0.35  N 
ATOM      8  C   ALA B 988      -2.763  -8.441 -23.869  1.00 19.82 LIG 0.24  C 
ATOM      9 O    ALA B 988      -3.204  -9.501 -23.417  1.00 21.07 LIG-0.27  OA
ATOM     10 H    GLN B 989      -1.165  -7.441 -24.323  1.00 21.51 LIG 0.16  HD
BRANCH 8 11
ATOM     11  CA  ALA B 988      -3.698  -7.331 -24.323  1.00 22.60 LIG 0.17  C 
ATOM     12  CB  ALA B 988      -3.627  -6.144 -23.357  1.00 24.03 LIG 0.04  C 
BRANCH 11 13
ATOM     13  N   ALA B 988      -5.043  -7.865 -24.412  1.00 21.45 LIG-0.35  N 
ATOM     14  C   GLU B 987      -5.736  -7.896 -25.543  1.00 22.73 LIG 0.24  C 
ATOM     15 O    GLU B 987      -5.393  -7.307 -26.571  1.00 25.22 LIG-0.27  OA
ATOM     16 H    ALA B 988      -5.349  -8.160 -23.664  1.00 21.45 LIG 0.16  HD
BRANCH 14 17
ATOM     17  CA  GLU B 987      -7.012  -8.712 -25.503  1.00 20.66 LIG 0.18  C 
BRANCH 17 18
ATOM     18  CB  GLU B 987      -6.679 -10.168 -25.809  1.00 22.09 LIG 0.04  C 
BRANCH 18 19
ATOM     19  CG  GLU B 987      -7.537 -11.187 -25.091  1.00 27.98 LIG 0.12  C 
BRANCH 19 20
ATOM     20  CD  GLU B 987      -6.970 -12.587 -25.222  1.00 24.84 LIG 0.17  C 
ATOM     21 OE1  GLU B 987      -6.052 -12.780 -26.048  1.00 22.19 LIG-0.65  OA
ATOM     22 OE2  GLU B 987      -7.415 -13.489 -24.484  1.00 23.04 LIG-0.65  OA
ENDBRANCH 19 20
ENDBRANCH 18 19
ENDBRANCH 17 18
BRANCH 17 23
ATOM     23  N   GLU B 987      -7.983  -8.178 -26.453  1.00 23.24 LIG-0.35  N 
ATOM     24 H    GLU B 987      -7.790  -8.334 -27.276  1.00 23.24 LIG 0.16  HD
ATOM     25  C   ACE B 986      -9.067  -7.510 -26.064  1.00 26.84 LIG 0.21  C 
ATOM     26  CH3 ACE B 986      -9.947  -7.030 -27.182  1.00 28.09 LIG 0.12  C 
ATOM     27 O    ACE B 986      -9.345  -7.301 -24.883  1.00 26.08 LIG-0.27  OA
ENDBRANCH 17 23
ENDBRANCH 14 17
ENDBRANCH 11 13
ENDBRANCH 8 11
ENDBRANCH 6 7
BRANCH 6 28
ATOM     28  CB  GLN B 989       0.207  -9.777 -24.865  1.00 26.69 LIG 0.04  C 
BRANCH 28 29
ATOM     29  CG  GLN B 989      -0.493 -11.053 -25.310  1.00 35.87 LIG 0.10  C 
BRANCH 29 30
ATOM     30  CD  GLN B 989      -0.879 -11.022 -26.775  1.00 52.60 LIG 0.21  C 
ATOM     31  NE2 GLN B 989      -0.386 -11.989 -27.544  1.00 32.18 LIG-0.37  N 
ATOM     32 21HE GLN B 989       0.122 -12.593 -27.203  1.00 32.18 LIG 0.16  HD
ATOM     33 22HE GLN B 989      -0.576 -12.010 -28.383  1.00 32.18 LIG 0.16  HD
ATOM     34 OE1  GLN B 989      -1.610 -10.134 -27.211  1.00 38.19 LIG-0.27  OA
ENDBRANCH 29 30
ENDBRANCH 28 29
ENDBRANCH 6 28
ENDBRANCH 3 6
ENDBRANCH 1 2
BRANCH 1 35
ATOM     35  C   THR B 990       3.287  -9.488 -20.534  1.00 20.40 LIG 0.24  C 
ATOM     36  N   ARG B 991       4.524  -9.561 -21.026  1.00 18.25 LIG-0.35  N 
ATOM     37 H    ARG B 991       4.805  -9.089 -21.687  1.00 18.25 LIG 0.16  HD
ATOM     38 O    THR B 990       2.866 -10.239 -19.649  1.00 21.77 LIG-0.27  OA
BRANCH 36 39
ATOM     39  CA  ARG B 991       5.524 -10.467 -20.472  1.00 18.44 LIG 0.18  C 
BRANCH 39 40
ATOM     40  CB  ARG B 991       6.760 -10.551 -21.371  1.00 17.17 LIG 0.04  C 
BRANCH 40 41
ATOM     41  CG  ARG B 991       7.984 -11.044 -20.633  1.00 18.12 LIG 0.02  C 
BRANCH 41 42
ATOM     42  CD  ARG B 991       8.705 -12.122 -21.396  1.00 20.13 LIG 0.14  C 
BRANCH 42 43
ATOM     43  NE  ARG B 991       7.965 -13.383 -21.398  1.00 19.75 LIG-0.23  N 
ATOM     44 HE   ARG B 991       7.156 -13.377 -21.109  1.00 19.75 LIG 0.18  HD
ATOM     45  CZ  ARG B 991       8.469 -14.542 -21.820  1.00 21.42 LIG 0.67  C 
ATOM     46  NH2 ARG B 991       7.728 -15.637 -21.791  1.00 25.04 LIG-0.23  N 
ATOM     47  NH1 ARG B 991       9.714 -14.614 -22.266  1.00 21.33 LIG-0.23  N 
ATOM     48 2HH2 ARG B 991       8.054 -16.385 -22.064  1.00 25.04 LIG 0.17  HD
ATOM     49 1HH2 ARG B 991       6.920 -15.602 -21.499  1.00 25.04 LIG 0.17  HD
ATOM     50 2HH1 ARG B 991      10.031 -15.366 -22.537  1.00 21.33 LIG 0.17  HD
ATOM     51 1HH1 ARG B 991      10.206 -13.909 -22.284  1.00 21.33 LIG 0.17  HD
ENDBRANCH 42 43
ENDBRANCH 41 42
ENDBRANCH 40 41
ENDBRANCH 39 40
BRANCH 39 52
ATOM     52  C   ARG B 991       5.916  -9.986 -19.082  1.00 19.80 LIG 0.24  C 
ATOM     53  N   LEU B 992       6.138 -10.933 -18.175  1.00 20.89 LIG-0.34  N 
ATOM     54 H    LEU B 992       6.116 -11.775 -18.348  1.00 20.89 LIG 0.16  HD
ATOM     55 O    ARG B 991       6.014  -8.777 -18.840  1.00 18.76 LIG-0.27  OA
BRANCH 53 56
ATOM     56  CA  LEU B 992       6.442 -10.616 -16.785  1.00 21.42 LIG 0.18  C 
BRANCH 56 57
ATOM     57  CB  LEU B 992       5.162 -10.667 -15.944  1.00 24.29 LIG 0.04  C 
BRANCH 57 58
ATOM     58  CG  LEU B 992       4.129  -9.612 -16.366  1.00 26.83 LIG-0.02  C 
ATOM     59  CD1 LEU B 992       2.702 -10.119 -16.253  1.00 69.60 LIG 0.01  C 
ATOM     60  CD2 LEU B 992       4.327  -8.333 -15.567  1.00 26.77 LIG 0.01  C 
ENDBRANCH 57 58
ENDBRANCH 56 57
BRANCH 56 61
ATOM     61  C   LEU B 992       7.494 -11.569 -16.218  1.00 23.41 LIG 0.20  C 
ATOM     62 OXT  LEU B 992       7.593 -12.739 -16.610  1.00 23.28 LIG-0.65  OA
ATOM     63 O    LEU B 992       8.273 -11.173 -15.349  1.00 25.47 LIG-0.65  OA
ENDBRANCH 56 61
ENDBRANCH 53 56
ENDBRANCH 39 52
ENDBRANCH 36 39
ENDBRANCH 1 35
BRANCH 1 64
ATOM     64  CB  THR B 990       1.768  -7.568 -19.986  1.00 25.20 LIG 0.15  C 
ATOM     65  CG2 THR B 990       2.848  -7.034 -19.061  1.00 22.41 LIG 0.04  C 
BRANCH 64 66
ATOM     66 OG1  THR B 990       1.032  -6.463 -20.533  1.00 22.69 LIG-0.39  OA
ATOM     67 HG1  THR B 990       0.264  -6.721 -20.757  1.00 22.69 LIG 0.21  HD
ENDBRANCH 64 66
ENDBRANCH 1 64
TORSDOF 26
ENDMDL
MODEL 2
USER: ADFR SOLUTION from run 98
USER: SCORE 21.927685 LL:  -5.157 LR: -19.054 RR:   0.000 FEB: -11.298
USER: RMSD 2.490711
USER: SEED 97
USER: STATUS 1 or 2 clusters left
USER: GENES 28
USER: genes 0 Translation |==|  0.58015 0.64055 0.55233
USER: genes 1 Rotation |==|  0.48446 0.47709 0.48395 0.99897
USER: genes 2 Torsion [CB]-CA--N-[C] |==|  0.20283
USER: genes 3 Torsion [N]-C--CA-[N] |==|  0.42223
USER: genes 4 Torsion [C]-CA--N-[C] |==|  0.62153
USER: genes 5 Torsion [N]-C--CA-[N] |==|  0.33592
USER: genes 6 Torsion [C]-CA--N-[C] |==|  0.82974
USER: genes 7 Torsion [N]-C--CA-[N] |==|  0.02037
USER: genes 8 Torsion [C]-CA--CB-[CG] |==|  0.68526
USER: genes 9 Torsion [CA]-CB--CG-[CD] |==|  0.24920
USER: genes 10 Torsion [CB]-CG--CD-[OE1] |==|  0.67862
USER: genes 11 Torsion [C]-CA--N-[C] |==|  0.73498
USER: genes 12 Torsion [C]-CA--CB-[CG] |==|  0.43977
USER: genes 13 Torsion [CA]-CB--CG-[CD] |==|  0.39917
USER: genes 14 Torsion [CB]-CG--CD-[OE1] |==|  0.85360
USER: genes 15 Torsion [N]-CA--C-[N] |==|  0.30136
USER: genes 16 Torsion [C]-N--CA-[CB] |==|  0.47301
USER: genes 17 Torsion [N]-CA--CB-[CG] |==|  0.39487
USER: genes 18 Torsion [CA]-CB--CG-[CD] |==|  0.37200
USER: genes 19 Torsion [CB]-CG--CD-[NE] |==|  0.85727
USER: genes 20 Torsion [CG]-CD--NE-[HE] |==|  0.01708
USER: genes 21 Torsion [N]-CA--C-[N] |==|  0.40812
USER: genes 22 Torsion [C]-N--CA-[CB] |==|  0.25998
USER: genes 23 Torsion [N]-CA--CB-[CG] |==|  0.82656
USER: genes 24 Torsion [CA]-CB--CG-[CD1] |==|  0.36775
USER: genes 25 Torsion [N]-CA--C-[OXT] |==|  0.91005
USER: genes 26 Torsion [N]-CA--CB-[OG1] |==|  0.83992
USER: genes 27 Torsion [CA]-CB--OG1-[HG1] |==|  0.17612
ROOT
ATOM      1  CA  THR B 990       2.317  -8.334 -21.096  1.00 21.72 LIG 0.20  C 
ENDROOT
BRANCH 1 2
ATOM      2  N   THR B 990       1.271  -8.940 -21.916  1.00 18.80 LIG-0.34  N 
ATOM      3  C   GLN B 989       0.547  -8.232 -22.779  1.00 20.29 LIG 0.24  C 
ATOM      4 O    GLN B 989       0.726  -7.026 -22.979  1.00 25.34 LIG-0.27  OA
ATOM      5 H    THR B 990       1.170  -9.784 -21.790  1.00 18.80 LIG 0.16  HD
BRANCH 3 6
ATOM      6  CA  GLN B 989      -0.529  -8.983 -23.553  1.00 20.93 LIG 0.18  C 
BRANCH 6 7
ATOM      7  N   GLN B 989      -1.595  -8.047 -23.894  1.00 21.51 LIG-0.35  N 
ATOM      8  C   ALA B 988      -2.894  -8.326 -23.776  1.00 19.82 LIG 0.24  C 
ATOM      9 O    ALA B 988      -3.324  -9.409 -23.371  1.00 21.07 LIG-0.27  OA
ATOM     10 H    GLN B 989      -1.306  -7.290 -24.181  1.00 21.51 LIG 0.16  HD
BRANCH 8 11
ATOM     11  CA  ALA B 988      -3.841  -7.210 -24.187  1.00 22.60 LIG 0.17  C 
ATOM     12  CB  ALA B 988      -4.662  -6.736 -22.984  1.00 24.03 LIG 0.04  C 
BRANCH 11 13
ATOM     13  N   ALA B 988      -4.693  -7.694 -25.256  1.00 21.45 LIG-0.35  N 
ATOM     14  C   GLU B 987      -4.223  -8.101 -26.428  1.00 22.73 LIG 0.24  C 
ATOM     15 O    GLU B 987      -3.057  -7.929 -26.794  1.00 25.22 LIG-0.27  OA
ATOM     16 H    ALA B 988      -5.530  -7.693 -25.059  1.00 21.45 LIG 0.16  HD
BRANCH 14 17
ATOM     17  CA  GLU B 987      -5.223  -8.806 -27.322  1.00 20.66 LIG 0.18  C 
BRANCH 17 18
ATOM     18  CB  GLU B 987      -5.180  -8.174 -28.708  1.00 22.09 LIG 0.04  C 
BRANCH 18 19
ATOM     19  CG  GLU B 987      -6.434  -7.430 -29.113  1.00 27.98 LIG 0.12  C 
BRANCH 19 20
ATOM     20  CD  GLU B 987      -6.378  -5.973 -28.701  1.00 24.84 LIG 0.17  C 
ATOM     21 OE1  GLU B 987      -7.205  -5.561 -27.859  1.00 22.19 LIG-0.65  OA
ATOM     22 OE2  GLU B 987      -5.491  -5.242 -29.190  1.00 23.04 LIG-0.65  OA
ENDBRANCH 19 20
ENDBRANCH 18 19
ENDBRANCH 17 18
BRANCH 17 23
ATOM     23  N   GLU B 987      -6.561  -8.726 -26.743  1.00 23.24 LIG-0.35  N 
ATOM     24 H    GLU B 987      -6.981  -8.000 -26.931  1.00 23.24 LIG 0.16  HD
ATOM     25  C   ACE B 986      -7.071  -9.700 -25.991  1.00 26.84 LIG 0.21  C 
ATOM     26  CH3 ACE B 986      -8.457  -9.439 -25.477  1.00 28.09 LIG 0.12  C 
ATOM     27 O    ACE B 986      -6.468 -10.742 -25.735  1.00 26.08 LIG-0.27  OA
ENDBRANCH 17 23
ENDBRANCH 14 17
ENDBRANCH 11 13
ENDBRANCH 8 11
ENDBRANCH 6 7
BRANCH 6 28
ATOM     28  CB  GLN B 989       0.073  -9.609 -24.815  1.00 26.69 LIG 0.04  C 
BRANCH 28 29
ATOM     29  CG  GLN B 989      -0.723 -10.776 -25.381  1.00 35.87 LIG 0.10  C 
BRANCH 29 30
ATOM     30  CD  GLN B 989      -0.706 -10.808 -26.896  1.00 52.60 LIG 0.21  C 
ATOM     31  NE2 GLN B 989      -0.330 -11.949 -27.466  1.00 32.18 LIG-0.37  N 
ATOM     32 21HE GLN B 989      -0.114 -12.623 -26.978  1.00 32.18 LIG 0.16  HD
ATOM     33 22HE GLN B 989      -0.302 -12.013 -28.324  1.00 32.18 LIG 0.16  HD
ATOM     34 OE1  GLN B 989      -1.025  -9.814 -27.547  1.00 38.19 LIG-0.27  OA
ENDBRANCH 29 30
ENDBRANCH 28 29
ENDBRANCH 6 28
ENDBRANCH 3 6
ENDBRANCH 1 2
BRANCH 1 35
ATOM     35  C   THR B 990       3.196  -9.426 -20.500  1.00 20.40 LIG 0.24  C 
ATOM     36  N   ARG B 991       4.428  -9.538 -20.997  1.00 18.25 LIG-0.35  N 
ATOM     37 H    ARG B 991       4.717  -9.083 -21.667  1.00 18.25 LIG 0.16  HD
ATOM     38 O    THR B 990       2.761 -10.153 -19.602  1.00 21.77 LIG-0.27  OA
BRANCH 36 39
ATOM     39  CA  ARG B 991       5.408 -10.462 -20.435  1.00 18.44 LIG 0.18  C 
BRANCH 39 40
ATOM     40  CB  ARG B 991       6.647 -10.571 -21.326  1.00 17.17 LIG 0.04  C 
BRANCH 40 41
ATOM     41  CG  ARG B 991       7.928 -10.684 -20.530  1.00 18.12 LIG 0.02  C 
BRANCH 41 42
ATOM     42  CD  ARG B 991       8.823 -11.772 -21.058  1.00 20.13 LIG 0.14  C 
BRANCH 42 43
ATOM     43  NE  ARG B 991       8.117 -13.044 -21.202  1.00 19.75 LIG-0.23  N 
ATOM     44 HE   ARG B 991       7.269 -13.053 -21.063  1.00 19.75 LIG 0.18  HD
ATOM     45  CZ  ARG B 991       8.707 -14.191 -21.537  1.00 21.42 LIG 0.67  C 
ATOM     46  NH2 ARG B 991       7.992 -15.297 -21.650  1.00 25.04 LIG-0.23  N 
ATOM     47  NH1 ARG B 991      10.013 -14.239 -21.753  1.00 21.33 LIG-0.23  N 
ATOM     48 2HH2 ARG B 991       8.374 -16.036 -21.866  1.00 25.04 LIG 0.17  HD
ATOM     49 1HH2 ARG B 991       7.144 -15.277 -21.507  1.00 25.04 LIG 0.17  HD
ATOM     50 2HH1 ARG B 991      10.387 -14.984 -21.969  1.00 21.33 LIG 0.17  HD
ATOM     51 1HH1 ARG B 991      10.489 -13.526 -21.677  1.00 21.33 LIG 0.17  HD
ENDBRANCH 42 43
ENDBRANCH 41 42
ENDBRANCH 40 41
ENDBRANCH 39 40
BRANCH 39 52
ATOM     52  C   ARG B 991       5.799  -9.985 -19.044  1.00 19.80 LIG 0.24  C 
ATOM     53  N   LEU B 992       6.090 -10.935 -18.159  1.00 20.89 LIG-0.34  N 
ATOM     54 H    LEU B 992       6.111 -11.773 -18.348  1.00 20.89 LIG 0.16  HD
ATOM     55 O    ARG B 991       5.836  -8.777 -18.780  1.00 18.76 LIG-0.27  OA
BRANCH 53 56
ATOM     56  CA  LEU B 992       6.403 -10.628 -16.769  1.00 21.42 LIG 0.18  C 
BRANCH 56 57
ATOM     57  CB  LEU B 992       5.135 -10.716 -15.914  1.00 24.29 LIG 0.04  C 
BRANCH 57 58
ATOM     58  CG  LEU B 992       4.064  -9.697 -16.329  1.00 26.83 LIG-0.02  C 
ATOM     59  CD1 LEU B 992       2.688 -10.325 -16.469  1.00 69.60 LIG 0.01  C 
ATOM     60  CD2 LEU B 992       4.043  -8.529 -15.355  1.00 26.77 LIG 0.01  C 
ENDBRANCH 57 58
ENDBRANCH 56 57
BRANCH 56 61
ATOM     61  C   LEU B 992       7.483 -11.563 -16.225  1.00 23.41 LIG 0.20  C 
ATOM     62 OXT  LEU B 992       7.583 -12.736 -16.609  1.00 23.28 LIG-0.65  OA
ATOM     63 O    LEU B 992       8.283 -11.151 -15.383  1.00 25.47 LIG-0.65  OA
ENDBRANCH 56 61
ENDBRANCH 53 56
ENDBRANCH 39 52
ENDBRANCH 36 39
ENDBRANCH 1 35
BRANCH 1 64
ATOM     64  CB  THR B 990       1.715  -7.472 -19.971  1.00 25.20 LIG 0.15  C 
ATOM     65  CG2 THR B 990       2.809  -6.815 -19.147  1.00 22.41 LIG 0.04  C 
BRANCH 64 66
ATOM     66 OG1  THR B 990       0.871  -6.451 -20.527  1.00 22.69 LIG-0.39  OA
ATOM     67 HG1  THR B 990       0.222  -6.809 -20.923  1.00 22.69 LIG 0.21  HD
ENDBRANCH 64 66
ENDBRANCH 1 64
TORSDOF 26
ENDMDL
