MODEL 1
USER: ADFR SOLUTION from run 65
USER: SCORE 23.474128 LL:  -4.156 LR: -19.987 RR:   0.000 FEB: -12.231
USER: RMSD 1.690179
USER: SEED 64
USER: STATUS no improvement in best in 1 clusters for 5 generations
USER: GENES 28
USER: genes 0 Translation |==|  0.44678 0.51172 0.48728
USER: genes 1 Rotation |==|  0.49879 0.46041 0.46066 0.99687
USER: genes 2 Torsion [N]-C--CA-[N] |==|  0.34350
USER: genes 3 Torsion [C]-CA--N-[C] |==|  0.63208
USER: genes 4 Torsion [N]-C--CA-[N] |==|  0.43079
USER: genes 5 Torsion [C]-CA--CB-[CG] |==|  0.39318
USER: genes 6 Torsion [CA]-CB--CG-[CD] |==|  0.55913
USER: genes 7 Torsion [CB]-CG--CD-[OE1] |==|  0.05683
USER: genes 8 Torsion [C]-CA--N-[C] |==|  0.71329
USER: genes 9 Torsion [N]-C--CA-[N] |==|  0.36392
USER: genes 10 Torsion [C]-CA--CB-[CG2] |==|  0.07751
USER: genes 11 Torsion [CA]-CB--CG1-[CD1] |==|  0.59456
USER: genes 12 Torsion [C]-CA--N-[C] |==|  0.71946
USER: genes 13 Torsion [C]-CA--CB-[OG] |==|  0.42443
USER: genes 14 Torsion [CA]-CB--OG-[HG] |==|  0.59245
USER: genes 15 Torsion [C]-N--CA-[C] |==|  0.63798
USER: genes 16 Torsion [N]-CA--CB-[CG2] |==|  0.47119
USER: genes 17 Torsion [CA]-CB--OG1-[HG1] |==|  0.18940
USER: genes 18 Torsion [N]-CA--C-[N] |==|  0.38026
USER: genes 19 Torsion [C]-N--CA-[C] |==|  0.79895
USER: genes 20 Torsion [N]-CA--CB-[CG] |==|  0.23725
USER: genes 21 Torsion [CA]-CB--CG-[CD] |==|  0.84456
USER: genes 22 Torsion [CB]-CG--CD-[OE1] |==|  0.86979
USER: genes 23 Torsion [N]-CA--C-[N] |==|  0.43585
USER: genes 24 Torsion [C]-N--CA-[CB] |==|  0.24493
USER: genes 25 Torsion [N]-CA--CB-[CG2] |==|  0.57923
USER: genes 26 Torsion [CA]-CB--CG1-[CD1] |==|  0.70020
USER: genes 27 Torsion [N]-CA--C-[OXT] |==|  0.90300
ROOT
ATOM      1  C   SER B 700     -21.888 -16.168   0.689  1.00 12.42 LIG 0.24  C 
ATOM      2 O    SER B 700     -22.870 -15.425   0.747  1.00 14.21 LIG-0.27  OA
ATOM      3  N   THR B 701     -20.739 -15.920   1.319  1.00 11.45 LIG-0.34  N 
ATOM      4 H    THR B 701     -20.037 -16.411   1.251  1.00 11.45 LIG 0.16  HD
ENDROOT
BRANCH 1 5
ATOM      5  CA  SER B 700     -21.953 -17.479  -0.079  1.00 12.28 LIG 0.20  C 
BRANCH 5 6
ATOM      6  N   SER B 700     -23.084 -18.264   0.395  1.00 11.50 LIG-0.34  N 
ATOM      7 H    SER B 700     -23.824 -17.831   0.462  1.00 11.50 LIG 0.16  HD
ATOM      8  C   GLU B 699     -22.935 -19.552   0.692  1.00 10.99 LIG 0.24  C 
ATOM      9 O    GLU B 699     -21.878 -20.155   0.525  1.00 12.44 LIG-0.27  OA
BRANCH 8 10
ATOM     10  CA  GLU B 699     -24.152 -20.252   1.272  1.00 11.42 LIG 0.18  C 
BRANCH 10 11
ATOM     11  CB  GLU B 699     -24.187 -19.981   2.781  1.00 13.76 LIG 0.04  C 
BRANCH 11 12
ATOM     12  CG  GLU B 699     -25.593 -19.755   3.323  1.00 17.93 LIG 0.12  C 
BRANCH 12 13
ATOM     13  CD  GLU B 699     -25.638 -19.000   4.651  1.00 21.63 LIG 0.17  C 
ATOM     14 OE2  GLU B 699     -26.652 -19.118   5.345  1.00 23.04 LIG-0.65  OA
ATOM     15 OE1  GLU B 699     -24.684 -18.302   5.024  1.00 23.73 LIG-0.65  OA
ENDBRANCH 12 13
ENDBRANCH 11 12
ENDBRANCH 10 11
BRANCH 10 16
ATOM     16  N   GLU B 699     -24.066 -21.680   0.999  1.00 10.55 LIG-0.35  N 
ATOM     17  C   ILE B 698     -24.773 -22.298   0.046  1.00 10.83 LIG 0.24  C 
ATOM     18 O    ILE B 698     -25.520 -21.707  -0.733  1.00 12.04 LIG-0.27  OA
ATOM     19 H    GLU B 699     -23.513 -22.093   1.512  1.00 10.55 LIG 0.16  HD
BRANCH 17 20
ATOM     20  CA  ILE B 698     -24.599 -23.789  -0.073  1.00 12.48 LIG 0.18  C 
BRANCH 20 21
ATOM     21  CB  ILE B 698     -23.802 -24.130  -1.348  1.00 12.07 LIG 0.01  C 
ATOM     22  CG2 ILE B 698     -22.871 -22.987  -1.726  1.00 12.44 LIG 0.01  C 
BRANCH 21 23
ATOM     23  CG1 ILE B 698     -23.012 -25.435  -1.176  1.00 16.16 LIG 0.00  C 
ATOM     24  CD1 ILE B 698     -21.692 -25.493  -1.879  1.00 20.65 LIG 0.01  C 
ENDBRANCH 21 23
ENDBRANCH 20 21
BRANCH 20 25
ATOM     25  N   ILE B 698     -25.920 -24.407  -0.123  1.00 11.32 LIG-0.35  N 
ATOM     26 H    ILE B 698     -26.296 -24.356  -0.894  1.00 11.32 LIG 0.16  HD
ATOM     27  C   ACE B 697     -26.488 -24.993   0.928  1.00 12.73 LIG 0.21  C 
ATOM     28  CH3 ACE B 697     -27.860 -25.595   0.715  1.00 14.28 LIG 0.12  C 
ATOM     29 O    ACE B 697     -25.924 -25.026   2.024  1.00 13.22 LIG-0.27  OA
ENDBRANCH 20 25
ENDBRANCH 17 20
ENDBRANCH 10 16
ENDBRANCH 8 10
ENDBRANCH 5 6
BRANCH 5 30
ATOM     30  CB  SER B 700     -21.985 -17.255  -1.595  1.00 19.95 LIG 0.20  C 
BRANCH 30 31
ATOM     31 OG   SER B 700     -21.450 -18.334  -2.293  1.00 23.61 LIG-0.40  OA
ATOM     32 HG   SER B 700     -21.066 -18.057  -2.987  1.00 23.61 LIG 0.21  HD
ENDBRANCH 30 31
ENDBRANCH 5 30
ENDBRANCH 1 5
BRANCH 3 33
ATOM     33  CA  THR B 701     -20.586 -14.770   2.190  1.00 11.25 LIG 0.20  C 
BRANCH 33 34
ATOM     34  CB  THR B 701     -20.466 -15.237   3.647  1.00 12.39 LIG 0.15  C 
ATOM     35  CG2 THR B 701     -20.052 -14.076   4.532  1.00 12.07 LIG 0.04  C 
BRANCH 34 36
ATOM     36 OG1  THR B 701     -21.714 -15.764   4.122  1.00 13.39 LIG-0.39  OA
ATOM     37 HG1  THR B 701     -21.887 -16.482   3.722  1.00 13.39 LIG 0.21  HD
ENDBRANCH 34 36
ENDBRANCH 33 34
BRANCH 33 38
ATOM     38  C   THR B 701     -19.318 -14.007   1.826  1.00 11.24 LIG 0.24  C 
ATOM     39 O    THR B 701     -18.279 -14.622   1.601  1.00 11.69 LIG-0.27  OA
ATOM     40  N   GLU B 702     -19.388 -12.675   1.784  1.00 12.56 LIG-0.35  N 
ATOM     41 H    GLU B 702     -20.115 -12.227   1.886  1.00 12.56 LIG 0.16  HD
BRANCH 40 42
ATOM     42  CA  GLU B 702     -18.202 -11.859   1.555  1.00 14.77 LIG 0.18  C 
BRANCH 42 43
ATOM     43  CB  GLU B 702     -18.598 -10.423   1.224  1.00 19.79 LIG 0.04  C 
BRANCH 43 44
ATOM     44  CG  GLU B 702     -18.826  -9.549   2.472  1.00 26.45 LIG 0.12  C 
BRANCH 44 45
ATOM     45  CD  GLU B 702     -19.858 -10.122   3.424  1.00 32.08 LIG 0.17  C 
ATOM     46 OE1  GLU B 702     -20.951 -10.538   2.951  1.00 34.05 LIG-0.65  OA
ATOM     47 OE2  GLU B 702     -19.578 -10.170   4.649  1.00 34.63 LIG-0.65  OA
ENDBRANCH 44 45
ENDBRANCH 43 44
ENDBRANCH 42 43
BRANCH 42 48
ATOM     48  C   GLU B 702     -17.314 -11.871   2.791  1.00 15.13 LIG 0.24  C 
ATOM     49 O    GLU B 702     -17.784 -12.127   3.903  1.00 15.63 LIG-0.27  OA
ATOM     50  N   ILE B 703     -16.041 -11.594   2.578  1.00 14.66 LIG-0.34  N 
ATOM     51 H    ILE B 703     -15.747 -11.356   1.805  1.00 14.66 LIG 0.16  HD
BRANCH 50 52
ATOM     52  CA  ILE B 703     -14.990 -11.650   3.586  1.00 17.51 LIG 0.19  C 
BRANCH 52 53
ATOM     53  CB  ILE B 703     -14.400 -13.089   3.637  1.00 19.83 LIG 0.01  C 
ATOM     54  CG2 ILE B 703     -13.869 -13.401   5.024  1.00 22.74 LIG 0.01  C 
BRANCH 53 55
ATOM     55  CG1 ILE B 703     -15.407 -14.136   3.137  1.00 21.87 LIG 0.00  C 
ATOM     56  CD1 ILE B 703     -15.988 -15.003   4.178  1.00 23.51 LIG 0.01  C 
ENDBRANCH 53 55
ENDBRANCH 52 53
BRANCH 52 57
ATOM     57  C   ILE B 703     -13.863 -10.682   3.224  1.00 19.18 LIG 0.20  C 
ATOM     58 OXT  ILE B 703     -13.566 -10.498   2.016  1.00 18.49 LIG-0.65  OA
ATOM     59 O    ILE B 703     -13.191 -10.118   4.109  1.00 21.53 LIG-0.65  OA
ENDBRANCH 52 57
ENDBRANCH 50 52
ENDBRANCH 42 48
ENDBRANCH 40 42
ENDBRANCH 33 38
ENDBRANCH 3 33
TORSDOF 26
ENDMDL
MODEL 2
USER: ADFR SOLUTION from run 98
USER: SCORE 21.870563 LL:  -3.817 LR: -18.927 RR:   0.000 FEB: -11.171
USER: RMSD 2.015211
USER: SEED 97
USER: STATUS 1 or 2 clusters left
USER: GENES 28
USER: genes 0 Translation |==|  0.44583 0.51221 0.49010
USER: genes 1 Rotation |==|  0.49616 0.52103 0.50619 0.99950
USER: genes 2 Torsion [N]-C--CA-[N] |==|  0.39746
USER: genes 3 Torsion [C]-CA--N-[C] |==|  0.63676
USER: genes 4 Torsion [N]-C--CA-[N] |==|  0.41748
USER: genes 5 Torsion [C]-CA--CB-[CG] |==|  0.37081
USER: genes 6 Torsion [CA]-CB--CG-[CD] |==|  0.55646
USER: genes 7 Torsion [CB]-CG--CD-[OE1] |==|  0.08722
USER: genes 8 Torsion [C]-CA--N-[C] |==|  0.73390
USER: genes 9 Torsion [N]-C--CA-[N] |==|  0.33248
USER: genes 10 Torsion [C]-CA--CB-[CG2] |==|  0.12641
USER: genes 11 Torsion [CA]-CB--CG1-[CD1] |==|  0.70340
USER: genes 12 Torsion [C]-CA--N-[C] |==|  0.74024
USER: genes 13 Torsion [C]-CA--CB-[OG] |==|  0.46025
USER: genes 14 Torsion [CA]-CB--OG-[HG] |==|  0.57988
USER: genes 15 Torsion [C]-N--CA-[C] |==|  0.55005
USER: genes 16 Torsion [N]-CA--CB-[CG2] |==|  0.54177
USER: genes 17 Torsion [CA]-CB--OG1-[HG1] |==|  0.27586
USER: genes 18 Torsion [N]-CA--C-[N] |==|  0.39729
USER: genes 19 Torsion [C]-N--CA-[C] |==|  0.77695
USER: genes 20 Torsion [N]-CA--CB-[CG] |==|  0.58882
USER: genes 21 Torsion [CA]-CB--CG-[CD] |==|  0.71318
USER: genes 22 Torsion [CB]-CG--CD-[OE1] |==|  0.88753
USER: genes 23 Torsion [N]-CA--C-[N] |==|  0.01871
USER: genes 24 Torsion [C]-N--CA-[CB] |==|  0.84214
USER: genes 25 Torsion [N]-CA--CB-[CG2] |==|  0.55097
USER: genes 26 Torsion [CA]-CB--CG1-[CD1] |==|  0.83584
USER: genes 27 Torsion [N]-CA--C-[OXT] |==|  0.10772
ROOT
ATOM      1  C   SER B 700     -21.910 -16.154   0.736  1.00 12.42 LIG 0.24  C 
ATOM      2 O    SER B 700     -22.966 -15.596   1.040  1.00 14.21 LIG-0.27  OA
ATOM      3  N   THR B 701     -20.707 -15.689   1.074  1.00 11.45 LIG-0.34  N 
ATOM      4 H    THR B 701     -19.965 -16.049   0.831  1.00 11.45 LIG 0.16  HD
ENDROOT
BRANCH 1 5
ATOM      5  CA  SER B 700     -21.921 -17.477  -0.015  1.00 12.28 LIG 0.20  C 
BRANCH 5 6
ATOM      6  N   SER B 700     -23.065 -18.269   0.414  1.00 11.50 LIG-0.34  N 
ATOM      7 H    SER B 700     -23.816 -17.850   0.415  1.00 11.50 LIG 0.16  HD
ATOM      8  C   GLU B 699     -22.911 -19.542   0.768  1.00 10.99 LIG 0.24  C 
ATOM      9 O    GLU B 699     -21.832 -20.127   0.693  1.00 12.44 LIG-0.27  OA
BRANCH 8 10
ATOM     10  CA  GLU B 699     -24.148 -20.246   1.294  1.00 11.42 LIG 0.18  C 
BRANCH 10 11
ATOM     11  CB  GLU B 699     -24.222 -20.021   2.809  1.00 13.76 LIG 0.04  C 
BRANCH 11 12
ATOM     12  CG  GLU B 699     -25.606 -19.606   3.293  1.00 17.93 LIG 0.12  C 
BRANCH 12 13
ATOM     13  CD  GLU B 699     -25.612 -18.915   4.656  1.00 21.63 LIG 0.17  C 
ATOM     14 OE2  GLU B 699     -26.597 -19.081   5.380  1.00 23.04 LIG-0.65  OA
ATOM     15 OE1  GLU B 699     -24.654 -18.221   5.026  1.00 23.73 LIG-0.65  OA
ENDBRANCH 12 13
ENDBRANCH 11 12
ENDBRANCH 10 11
BRANCH 10 16
ATOM     16  N   GLU B 699     -24.068 -21.666   0.980  1.00 10.55 LIG-0.35  N 
ATOM     17  C   ILE B 698     -24.640 -22.223  -0.094  1.00 10.83 LIG 0.24  C 
ATOM     18 O    ILE B 698     -25.239 -21.577  -0.953  1.00 12.04 LIG-0.27  OA
ATOM     19 H    GLU B 699     -23.614 -22.118   1.554  1.00 10.55 LIG 0.16  HD
BRANCH 17 20
ATOM     20  CA  ILE B 698     -24.498 -23.715  -0.244  1.00 12.48 LIG 0.18  C 
BRANCH 20 21
ATOM     21  CB  ILE B 698     -23.762 -24.048  -1.557  1.00 12.07 LIG 0.01  C 
ATOM     22  CG2 ILE B 698     -22.540 -23.157  -1.734  1.00 12.44 LIG 0.01  C 
BRANCH 21 23
ATOM     23  CG1 ILE B 698     -23.361 -25.529  -1.609  1.00 16.16 LIG 0.00  C 
ATOM     24  CD1 ILE B 698     -21.905 -25.815  -1.421  1.00 20.65 LIG 0.01  C 
ENDBRANCH 21 23
ENDBRANCH 20 21
BRANCH 20 25
ATOM     25  N   ILE B 698     -25.831 -24.309  -0.249  1.00 11.32 LIG-0.35  N 
ATOM     26 H    ILE B 698     -26.198 -24.330  -1.026  1.00 11.32 LIG 0.16  HD
ATOM     27  C   ACE B 697     -26.423 -24.773   0.849  1.00 12.73 LIG 0.21  C 
ATOM     28  CH3 ACE B 697     -27.805 -25.367   0.680  1.00 14.28 LIG 0.12  C 
ATOM     29 O    ACE B 697     -25.873 -24.706   1.950  1.00 13.22 LIG-0.27  OA
ENDBRANCH 20 25
ENDBRANCH 17 20
ENDBRANCH 10 16
ENDBRANCH 8 10
ENDBRANCH 5 6
BRANCH 5 30
ATOM     30  CB  SER B 700     -21.880 -17.275  -1.534  1.00 19.95 LIG 0.20  C 
BRANCH 30 31
ATOM     31 OG   SER B 700     -21.571 -18.452  -2.209  1.00 23.61 LIG-0.40  OA
ATOM     32 HG   SER B 700     -21.180 -18.269  -2.930  1.00 23.61 LIG 0.21  HD
ENDBRANCH 30 31
ENDBRANCH 5 30
ENDBRANCH 1 5
BRANCH 3 33
ATOM     33  CA  THR B 701     -20.557 -14.506   1.901  1.00 11.25 LIG 0.20  C 
BRANCH 33 34
ATOM     34  CB  THR B 701     -20.791 -14.871   3.373  1.00 12.39 LIG 0.15  C 
ATOM     35  CG2 THR B 701     -21.005 -13.612   4.192  1.00 12.07 LIG 0.04  C 
BRANCH 34 36
ATOM     36 OG1  THR B 701     -21.940 -15.721   3.515  1.00 13.39 LIG-0.39  OA
ATOM     37 HG1  THR B 701     -21.692 -16.520   3.585  1.00 13.39 LIG 0.21  HD
ENDBRANCH 34 36
ENDBRANCH 33 34
BRANCH 33 38
ATOM     38  C   THR B 701     -19.144 -13.951   1.765  1.00 11.24 LIG 0.24  C 
ATOM     39 O    THR B 701     -18.193 -14.721   1.671  1.00 11.69 LIG-0.27  OA
ATOM     40  N   GLU B 702     -18.998 -12.625   1.770  1.00 12.56 LIG-0.35  N 
ATOM     41 H    GLU B 702     -19.652 -12.068   1.781  1.00 12.56 LIG 0.16  HD
BRANCH 40 42
ATOM     42  CA  GLU B 702     -17.677 -12.007   1.757  1.00 14.77 LIG 0.18  C 
BRANCH 42 43
ATOM     43  CB  GLU B 702     -17.765 -10.572   1.244  1.00 19.79 LIG 0.04  C 
BRANCH 43 44
ATOM     44  CG  GLU B 702     -16.508 -10.119   0.478  1.00 26.45 LIG 0.12  C 
BRANCH 44 45
ATOM     45  CD  GLU B 702     -15.606  -9.208   1.291  1.00 32.08 LIG 0.17  C 
ATOM     46 OE1  GLU B 702     -16.138  -8.325   2.018  1.00 34.05 LIG-0.65  OA
ATOM     47 OE2  GLU B 702     -14.363  -9.378   1.215  1.00 34.63 LIG-0.65  OA
ENDBRANCH 44 45
ENDBRANCH 43 44
ENDBRANCH 42 43
BRANCH 42 48
ATOM     48  C   GLU B 702     -17.085 -12.012   3.159  1.00 15.13 LIG 0.24  C 
ATOM     49 O    GLU B 702     -16.026 -11.426   3.399  1.00 15.63 LIG-0.27  OA
ATOM     50  N   ILE B 703     -17.781 -12.674   4.066  1.00 14.66 LIG-0.34  N 
ATOM     51 H    ILE B 703     -18.483 -13.128   3.863  1.00 14.66 LIG 0.16  HD
BRANCH 50 52
ATOM     52  CA  ILE B 703     -17.468 -12.727   5.488  1.00 17.51 LIG 0.19  C 
BRANCH 52 53
ATOM     53  CB  ILE B 703     -16.022 -13.267   5.678  1.00 19.83 LIG 0.01  C 
ATOM     54  CG2 ILE B 703     -15.817 -13.758   7.100  1.00 22.74 LIG 0.01  C 
BRANCH 53 55
ATOM     55  CG1 ILE B 703     -15.667 -14.328   4.626  1.00 21.87 LIG 0.00  C 
ATOM     56  CD1 ILE B 703     -16.539 -15.517   4.607  1.00 23.51 LIG 0.01  C 
ENDBRANCH 53 55
ENDBRANCH 52 53
BRANCH 52 57
ATOM     57  C   ILE B 703     -17.540 -11.324   6.094  1.00 19.18 LIG 0.20  C 
ATOM     58 OXT  ILE B 703     -18.441 -10.531   5.719  1.00 18.49 LIG-0.65  OA
ATOM     59 O    ILE B 703     -16.682 -10.931   6.908  1.00 21.53 LIG-0.65  OA
ENDBRANCH 52 57
ENDBRANCH 50 52
ENDBRANCH 42 48
ENDBRANCH 40 42
ENDBRANCH 33 38
ENDBRANCH 3 33
TORSDOF 26
ENDMDL
MODEL 3
USER: ADFR SOLUTION from run 100
USER: SCORE 21.196092 LL:  -4.122 LR: -18.536 RR:   0.000 FEB: -10.780
USER: RMSD 2.020073
USER: SEED 99
USER: STATUS 1 or 2 clusters left
USER: GENES 28
USER: genes 0 Translation |==|  0.45278 0.50944 0.50479
USER: genes 1 Rotation |==|  0.51171 0.54917 0.50800 0.99737
USER: genes 2 Torsion [N]-C--CA-[N] |==|  0.40847
USER: genes 3 Torsion [C]-CA--N-[C] |==|  0.60948
USER: genes 4 Torsion [N]-C--CA-[N] |==|  0.43763
USER: genes 5 Torsion [C]-CA--CB-[CG] |==|  0.42828
USER: genes 6 Torsion [CA]-CB--CG-[CD] |==|  0.52759
USER: genes 7 Torsion [CB]-CG--CD-[OE1] |==|  0.31895
USER: genes 8 Torsion [C]-CA--N-[C] |==|  0.75311
USER: genes 9 Torsion [N]-C--CA-[N] |==|  0.79241
USER: genes 10 Torsion [C]-CA--CB-[CG2] |==|  0.13780
USER: genes 11 Torsion [CA]-CB--CG1-[CD1] |==|  0.81413
USER: genes 12 Torsion [C]-CA--N-[C] |==|  0.81187
USER: genes 13 Torsion [C]-CA--CB-[OG] |==|  0.42888
USER: genes 14 Torsion [CA]-CB--OG-[HG] |==|  0.52668
USER: genes 15 Torsion [C]-N--CA-[C] |==|  0.56881
USER: genes 16 Torsion [N]-CA--CB-[CG2] |==|  0.48246
USER: genes 17 Torsion [CA]-CB--OG1-[HG1] |==|  0.25224
USER: genes 18 Torsion [N]-CA--C-[N] |==|  0.33889
USER: genes 19 Torsion [C]-N--CA-[C] |==|  0.78987
USER: genes 20 Torsion [N]-CA--CB-[CG] |==|  0.53791
USER: genes 21 Torsion [CA]-CB--CG-[CD] |==|  0.44560
USER: genes 22 Torsion [CB]-CG--CD-[OE1] |==|  0.93788
USER: genes 23 Torsion [N]-CA--C-[N] |==|  0.39283
USER: genes 24 Torsion [C]-N--CA-[CB] |==|  0.30311
USER: genes 25 Torsion [N]-CA--CB-[CG2] |==|  0.48364
USER: genes 26 Torsion [CA]-CB--CG1-[CD1] |==|  0.78731
USER: genes 27 Torsion [N]-CA--C-[OXT] |==|  0.91048
ROOT
ATOM      1  C   SER B 700     -21.753 -16.231   0.978  1.00 12.42 LIG 0.24  C 
ATOM      2 O    SER B 700     -22.768 -15.700   1.434  1.00 14.21 LIG-0.27  OA
ATOM      3  N   THR B 701     -20.520 -15.778   1.206  1.00 11.45 LIG-0.34  N 
ATOM      4 H    THR B 701     -19.810 -16.118   0.859  1.00 11.45 LIG 0.16  HD
ENDROOT
BRANCH 1 5
ATOM      5  CA  SER B 700     -21.850 -17.506   0.154  1.00 12.28 LIG 0.20  C 
BRANCH 5 6
ATOM      6  N   SER B 700     -22.995 -18.286   0.599  1.00 11.50 LIG-0.34  N 
ATOM      7 H    SER B 700     -23.694 -17.826   0.794  1.00 11.50 LIG 0.16  HD
ATOM      8  C   GLU B 699     -22.917 -19.612   0.684  1.00 10.99 LIG 0.24  C 
ATOM      9 O    GLU B 699     -21.921 -20.243   0.337  1.00 12.44 LIG-0.27  OA
BRANCH 8 10
ATOM     10  CA  GLU B 699     -24.133 -20.320   1.253  1.00 11.42 LIG 0.18  C 
BRANCH 10 11
ATOM     11  CB  GLU B 699     -24.066 -20.233   2.783  1.00 13.76 LIG 0.04  C 
BRANCH 11 12
ATOM     12  CG  GLU B 699     -25.431 -20.318   3.455  1.00 17.93 LIG 0.12  C 
BRANCH 12 13
ATOM     13  CD  GLU B 699     -25.415 -19.996   4.949  1.00 21.63 LIG 0.17  C 
ATOM     14 OE2  GLU B 699     -24.786 -20.753   5.693  1.00 23.04 LIG-0.65  OA
ATOM     15 OE1  GLU B 699     -26.004 -19.000   5.396  1.00 23.73 LIG-0.65  OA
ENDBRANCH 12 13
ENDBRANCH 11 12
ENDBRANCH 10 11
BRANCH 10 16
ATOM     16  N   GLU B 699     -24.139 -21.707   0.808  1.00 10.55 LIG-0.35  N 
ATOM     17  C   ILE B 698     -24.714 -22.120  -0.327  1.00 10.83 LIG 0.24  C 
ATOM     18 O    ILE B 698     -25.241 -21.356  -1.136  1.00 12.04 LIG-0.27  OA
ATOM     19 H    GLU B 699     -23.735 -22.241   1.348  1.00 10.55 LIG 0.16  HD
BRANCH 17 20
ATOM     20  CA  ILE B 698     -24.669 -23.598  -0.615  1.00 12.48 LIG 0.18  C 
BRANCH 20 21
ATOM     21  CB  ILE B 698     -25.057 -24.395   0.646  1.00 12.07 LIG 0.01  C 
ATOM     22  CG2 ILE B 698     -26.348 -23.860   1.250  1.00 12.44 LIG 0.01  C 
BRANCH 21 23
ATOM     23  CG1 ILE B 698     -25.187 -25.894   0.336  1.00 16.16 LIG 0.00  C 
ATOM     24  CD1 ILE B 698     -26.316 -26.275  -0.568  1.00 20.65 LIG 0.01  C 
ENDBRANCH 21 23
ENDBRANCH 20 21
BRANCH 20 25
ATOM     25  N   ILE B 698     -23.316 -23.946  -1.037  1.00 11.32 LIG-0.35  N 
ATOM     26 H    ILE B 698     -22.896 -24.443  -0.475  1.00 11.32 LIG 0.16  HD
ATOM     27  C   ACE B 697     -22.784 -23.532  -2.184  1.00 12.73 LIG 0.21  C 
ATOM     28  CH3 ACE B 697     -21.371 -23.984  -2.483  1.00 14.28 LIG 0.12  C 
ATOM     29 O    ACE B 697     -23.412 -22.802  -2.954  1.00 13.22 LIG-0.27  OA
ENDBRANCH 20 25
ENDBRANCH 17 20
ENDBRANCH 10 16
ENDBRANCH 8 10
ENDBRANCH 5 6
BRANCH 5 30
ATOM     30  CB  SER B 700     -21.883 -17.215  -1.351  1.00 19.95 LIG 0.20  C 
BRANCH 30 31
ATOM     31 OG   SER B 700     -21.407 -18.287  -2.100  1.00 23.61 LIG-0.40  OA
ATOM     32 HG   SER B 700     -21.315 -18.051  -2.901  1.00 23.61 LIG 0.21  HD
ENDBRANCH 30 31
ENDBRANCH 5 30
ENDBRANCH 1 5
BRANCH 3 33
ATOM     33  CA  THR B 701     -20.278 -14.647   2.082  1.00 11.25 LIG 0.20  C 
BRANCH 33 34
ATOM     34  CB  THR B 701     -20.176 -15.130   3.534  1.00 12.39 LIG 0.15  C 
ATOM     35  CG2 THR B 701     -19.769 -13.979   4.436  1.00 12.07 LIG 0.04  C 
BRANCH 34 36
ATOM     36 OG1  THR B 701     -21.431 -15.658   3.989  1.00 13.39 LIG-0.39  OA
ATOM     37 HG1  THR B 701     -21.461 -16.483   3.834  1.00 13.39 LIG 0.21  HD
ENDBRANCH 34 36
ENDBRANCH 33 34
BRANCH 33 38
ATOM     38  C   THR B 701     -18.963 -13.972   1.708  1.00 11.24 LIG 0.24  C 
ATOM     39 O    THR B 701     -17.918 -14.615   1.736  1.00 11.69 LIG-0.27  OA
ATOM     40  N   GLU B 702     -19.004 -12.680   1.376  1.00 12.56 LIG-0.35  N 
ATOM     41 H    GLU B 702     -19.729 -12.225   1.299  1.00 12.56 LIG 0.16  HD
BRANCH 40 42
ATOM     42  CA  GLU B 702     -17.785 -11.925   1.114  1.00 14.77 LIG 0.18  C 
BRANCH 42 43
ATOM     43  CB  GLU B 702     -18.108 -10.631   0.371  1.00 19.79 LIG 0.04  C 
BRANCH 43 44
ATOM     44  CG  GLU B 702     -16.868  -9.946  -0.232  1.00 26.45 LIG 0.12  C 
BRANCH 44 45
ATOM     45  CD  GLU B 702     -17.205  -8.961  -1.336  1.00 32.08 LIG 0.17  C 
ATOM     46 OE1  GLU B 702     -18.304  -9.088  -1.944  1.00 34.05 LIG-0.65  OA
ATOM     47 OE2  GLU B 702     -16.380  -8.049  -1.595  1.00 34.63 LIG-0.65  OA
ENDBRANCH 44 45
ENDBRANCH 43 44
ENDBRANCH 42 43
BRANCH 42 48
ATOM     48  C   GLU B 702     -17.082 -11.599   2.423  1.00 15.13 LIG 0.24  C 
ATOM     49 O    GLU B 702     -17.729 -11.291   3.428  1.00 15.63 LIG-0.27  OA
ATOM     50  N   ILE B 703     -15.763 -11.672   2.393  1.00 14.66 LIG-0.34  N 
ATOM     51 H    ILE B 703     -15.330 -11.825   1.665  1.00 14.66 LIG 0.16  HD
BRANCH 50 52
ATOM     52  CA  ILE B 703     -14.887 -11.507   3.545  1.00 17.51 LIG 0.19  C 
BRANCH 52 53
ATOM     53  CB  ILE B 703     -14.264 -12.883   3.919  1.00 19.83 LIG 0.01  C 
ATOM     54  CG2 ILE B 703     -13.236 -12.721   5.024  1.00 22.74 LIG 0.01  C 
BRANCH 53 55
ATOM     55  CG1 ILE B 703     -15.340 -13.924   4.257  1.00 21.87 LIG 0.00  C 
ATOM     56  CD1 ILE B 703     -15.960 -13.785   5.588  1.00 23.51 LIG 0.01  C 
ENDBRANCH 53 55
ENDBRANCH 52 53
BRANCH 52 57
ATOM     57  C   ILE B 703     -13.751 -10.541   3.207  1.00 19.18 LIG 0.20  C 
ATOM     58 OXT  ILE B 703     -13.305 -10.493   2.032  1.00 18.49 LIG-0.65  OA
ATOM     59 O    ILE B 703     -13.217  -9.843   4.091  1.00 21.53 LIG-0.65  OA
ENDBRANCH 52 57
ENDBRANCH 50 52
ENDBRANCH 42 48
ENDBRANCH 40 42
ENDBRANCH 33 38
ENDBRANCH 3 33
TORSDOF 26
ENDMDL
