MODEL 1
USER: ADFR SOLUTION from run 176
USER: SCORE 18.693721 LL:  -3.333 LR: -16.260 RR:   0.000 FEB: -11.189
USER: RMSD 1.397679
USER: SEED 175
USER: STATUS no improvement in best in 2 clusters for 5 generations
USER: GENES 19
USER: genes 0 Translation |==|  0.49021 0.49756 0.53397
USER: genes 1 Rotation |==|  0.48373 0.46355 0.51750 0.99810
USER: genes 2 Torsion [C]-CA--CB-[CG] |==|  0.22268
USER: genes 3 Torsion [CA]-CB--CG-[CD] |==|  0.58455
USER: genes 4 Torsion [CB]-CG--CD-[NE] |==|  0.79238
USER: genes 5 Torsion [CG]-CD--NE-[CZ] |==|  0.36000
USER: genes 6 Torsion [N]-CA--C-[N] |==|  0.41556
USER: genes 7 Torsion [N]-CA--C-[O] |==|  0.90871
USER: genes 8 Torsion [C]-N--CA-[C] |==|  0.77635
USER: genes 9 Torsion [N]-CA--C-[N] |==|  0.42559
USER: genes 10 Torsion [N]-CA--C-[O] |==|  0.87042
USER: genes 11 Torsion [CB]-CA--N-[C] |==|  0.47901
USER: genes 12 Torsion [N]-C--CA-[N] |==|  0.37604
USER: genes 13 Torsion [C]-CA--CB-[OG1] |==|  0.16359
USER: genes 14 Torsion [CA]-CB--OG1-[HG1] |==|  0.00552
USER: genes 15 Torsion [C]-CA--N-[C] |==|  0.83602
USER: genes 16 Torsion [N]-C--CA-[N] |==|  0.29844
USER: genes 17 Torsion [C]-CA--CB-[CG] |==|  0.27955
USER: genes 18 Torsion [CA]-CB--CG-[OD1] |==|  0.29580
ROOT
ATOM      1  CA  ARG E   5     102.141 125.362   7.952  1.00 34.60 LIG 0.18  C 
ENDROOT
BRANCH 1 2
ATOM      2  CB  ARG E   5     101.239 124.139   7.995  1.00 32.17 LIG 0.04  C 
BRANCH 2 3
ATOM      3  CG  ARG E   5     101.182 123.445   6.662  1.00 30.87 LIG 0.02  C 
BRANCH 3 4
ATOM      4  CD  ARG E   5      99.858 122.777   6.461  1.00 28.77 LIG 0.14  C 
BRANCH 4 5
ATOM      5  NE  ARG E   5      99.765 121.564   7.266  1.00 27.14 LIG-0.23  N 
ATOM      6  CZ  ARG E   5      98.748 121.284   8.069  1.00 27.11 LIG 0.67  C 
ATOM      7  NH2 ARG E   5      98.745 120.156   8.771  1.00 28.81 LIG-0.23  N 
ATOM      8  NH1 ARG E   5      97.737 122.136   8.171  1.00 26.86 LIG-0.23  N 
ATOM      9 2HH2 ARG E   5      98.085 119.974   9.291  1.00 28.81 LIG 0.17  HD
ATOM     10 1HH2 ARG E   5      99.403 119.607   8.704  1.00 28.81 LIG 0.17  HD
ATOM     11 2HH1 ARG E   5      97.075 121.959   8.690  1.00 26.86 LIG 0.17  HD
ATOM     12 1HH1 ARG E   5      97.743 122.868   7.718  1.00 26.86 LIG 0.17  HD
ATOM     13 HE   ARG E   5     100.409 120.996   7.217  1.00 27.14 LIG 0.18  HD
ENDBRANCH 4 5
ENDBRANCH 3 4
ENDBRANCH 2 3
ENDBRANCH 1 2
BRANCH 1 14
ATOM     14  C   ARG E   5     101.395 126.541   7.332  1.00 36.20 LIG 0.24  C 
ATOM     15 O    ARG E   5     100.771 127.325   8.061  1.00 36.29 LIG-0.27  OA
ATOM     16  N   PRO E   6     101.425 126.703   6.011  1.00 37.19 LIG-0.34  N 
ATOM     17  CA  PRO E   6     100.720 127.834   5.403  1.00 38.47 LIG 0.18  C 
ATOM     18  CD  PRO E   6     102.121 125.905   4.990  1.00 36.10 LIG 0.13  C 
ATOM     19  CB  PRO E   6     101.145 127.765   3.930  1.00 37.25 LIG 0.04  C 
ATOM     20  CG  PRO E   6     102.364 126.910   3.915  1.00 36.76 LIG 0.02  C 
BRANCH 17 21
ATOM     21  C   PRO E   6      99.215 127.703   5.534  1.00 38.85 LIG 0.24  C 
ATOM     22 O    PRO E   6      98.652 126.605   5.520  1.00 38.06 LIG-0.27  OA
ATOM     23  N   ALA E   7      98.565 128.849   5.670  1.00 39.96 LIG-0.35  N 
ATOM     24 H    ALA E   7      98.939 129.619   5.749  1.00 39.96 LIG 0.16  HD
BRANCH 23 25
ATOM     25  CA  ALA E   7      97.119 128.863   5.692  1.00 39.26 LIG 0.17  C 
ATOM     26  CB  ALA E   7      96.608 130.125   6.379  1.00 41.08 LIG 0.04  C 
BRANCH 25 27
ATOM     27  C   ALA E   7      96.602 128.787   4.257  1.00 37.69 LIG 0.24  C 
ATOM     28 O    ALA E   7      97.292 129.196   3.320  1.00 38.21 LIG-0.27  OA
ATOM     29  N   PRO E   8      95.390 128.251   4.050  1.00 36.84 LIG-0.34  N 
ATOM     30  CD  PRO E   8      94.480 127.652   5.039  1.00 36.57 LIG 0.13  C 
ATOM     31  CA  PRO E   8      94.840 128.155   2.696  1.00 36.95 LIG 0.17  C 
ATOM     32  CG  PRO E   8      93.189 127.548   4.284  1.00 36.01 LIG 0.02  C 
ATOM     33  CB  PRO E   8      93.628 127.246   2.892  1.00 35.51 LIG 0.04  C 
BRANCH 31 34
ATOM     34  C   PRO E   8      94.431 129.502   2.113  1.00 39.03 LIG 0.22  C 
ATOM     35 O    PRO E   8      93.769 130.285   2.793  1.00 41.16 LIG-0.29  OA
ENDBRANCH 31 34
ENDBRANCH 25 27
ENDBRANCH 23 25
ENDBRANCH 17 21
ENDBRANCH 1 14
BRANCH 1 36
ATOM     36  N   ARG E   5     102.589 125.731   9.278  1.00 35.03 LIG-0.35  N 
ATOM     37 H    ARG E   5     102.221 125.295   9.922  1.00 35.03 LIG 0.16  HD
ATOM     38  C   THR E   4     103.498 126.676   9.432  1.00 36.29 LIG 0.24  C 
ATOM     39 O    THR E   4     103.986 127.300   8.485  1.00 35.32 LIG-0.27  OA
BRANCH 38 40
ATOM     40  CA  THR E   4     103.915 126.947  10.871  1.00 38.81 LIG 0.20  C 
BRANCH 40 41
ATOM     41  CB  THR E   4     103.240 128.215  11.378  1.00 37.77 LIG 0.15  C 
ATOM     42  CG2 THR E   4     103.679 129.391  10.546  1.00 32.08 LIG 0.04  C 
BRANCH 41 43
ATOM     43 OG1  THR E   4     101.818 128.065  11.298  1.00 38.27 LIG-0.39  OA
ATOM     44 HG1  THR E   4     101.633 127.297  11.013  1.00 38.27 LIG 0.21  HD
ENDBRANCH 41 43
ENDBRANCH 40 41
BRANCH 40 45
ATOM     45  N   THR E   4     105.359 127.068  10.962  1.00 43.44 LIG-0.34  N 
ATOM     46  C   ASP E   3     106.170 126.084  10.594  1.00 43.86 LIG 0.26  C 
ATOM     47 O    ASP E   3     105.773 124.945  10.329  1.00 40.64 LIG-0.27  OA
ATOM     48 H    THR E   4     105.632 127.823  11.271  1.00 43.44 LIG 0.16  HD
BRANCH 46 49
ATOM     49  CA  ASP E   3     107.654 126.439  10.554  1.00 46.95 LIG 0.41  C 
ATOM     50  N   ASP E   3     108.393 125.828  11.653  1.00 48.81 LIG 0.61  N 
BRANCH 49 51
ATOM     51  CB  ASP E   3     108.254 126.039   9.209  1.00 49.65 LIG 0.16  C 
BRANCH 51 52
ATOM     52  CG  ASP E   3     108.406 127.207   8.256  1.00 52.58 LIG 0.17  C 
ATOM     53 OD1  ASP E   3     109.552 127.660   8.040  1.00 53.20 LIG-0.65  OA
ATOM     54 OD2  ASP E   3     107.365 127.658   7.716  1.00 53.89 LIG-0.65  OA
ENDBRANCH 51 52
ENDBRANCH 49 51
ENDBRANCH 46 49
ENDBRANCH 40 45
ENDBRANCH 38 40
ENDBRANCH 1 36
TORSDOF 17
ENDMDL
MODEL 2
USER: ADFR SOLUTION from run 38
USER: SCORE 17.449342 LL:  -3.646 LR: -15.145 RR:   0.000 FEB: -10.074
USER: RMSD 2.489882
USER: SEED 37
USER: STATUS 1 or 2 clusters left
USER: GENES 19
USER: genes 0 Translation |==|  0.48847 0.49462 0.52309
USER: genes 1 Rotation |==|  0.49826 0.47027 0.54482 0.99710
USER: genes 2 Torsion [C]-CA--CB-[CG] |==|  0.18008
USER: genes 3 Torsion [CA]-CB--CG-[CD] |==|  0.58797
USER: genes 4 Torsion [CB]-CG--CD-[NE] |==|  0.84260
USER: genes 5 Torsion [CG]-CD--NE-[CZ] |==|  0.37532
USER: genes 6 Torsion [N]-CA--C-[N] |==|  0.37637
USER: genes 7 Torsion [N]-CA--C-[O] |==|  0.98934
USER: genes 8 Torsion [C]-N--CA-[C] |==|  0.77232
USER: genes 9 Torsion [N]-CA--C-[N] |==|  0.87663
USER: genes 10 Torsion [N]-CA--C-[O] |==|  0.01578
USER: genes 11 Torsion [CB]-CA--N-[C] |==|  0.46116
USER: genes 12 Torsion [N]-C--CA-[N] |==|  0.38491
USER: genes 13 Torsion [C]-CA--CB-[OG1] |==|  0.12154
USER: genes 14 Torsion [CA]-CB--OG1-[HG1] |==|  0.05443
USER: genes 15 Torsion [C]-CA--N-[C] |==|  0.79065
USER: genes 16 Torsion [N]-C--CA-[N] |==|  0.33483
USER: genes 17 Torsion [C]-CA--CB-[CG] |==|  0.29363
USER: genes 18 Torsion [CA]-CB--CG-[OD1] |==|  0.28532
ROOT
ATOM      1  CA  ARG E   5     102.095 125.305   7.740  1.00 34.60 LIG 0.18  C 
ENDROOT
BRANCH 1 2
ATOM      2  CB  ARG E   5     101.337 123.987   7.747  1.00 32.17 LIG 0.04  C 
BRANCH 2 3
ATOM      3  CG  ARG E   5     100.989 123.540   6.354  1.00 30.87 LIG 0.02  C 
BRANCH 3 4
ATOM      4  CD  ARG E   5      99.702 122.777   6.342  1.00 28.77 LIG 0.14  C 
BRANCH 4 5
ATOM      5  NE  ARG E   5      99.769 121.636   7.247  1.00 27.14 LIG-0.23  N 
ATOM      6  CZ  ARG E   5      98.806 121.305   8.096  1.00 27.11 LIG 0.67  C 
ATOM      7  NH2 ARG E   5      98.951 120.249   8.889  1.00 28.81 LIG-0.23  N 
ATOM      8  NH1 ARG E   5      97.700 122.035   8.151  1.00 26.86 LIG-0.23  N 
ATOM      9 2HH2 ARG E   5      98.326 120.035   9.439  1.00 28.81 LIG 0.17  HD
ATOM     10 1HH2 ARG E   5      99.671 119.780   8.852  1.00 28.81 LIG 0.17  HD
ATOM     11 2HH1 ARG E   5      97.072 121.824   8.700  1.00 26.86 LIG 0.17  HD
ATOM     12 1HH1 ARG E   5      97.610 122.720   7.638  1.00 26.86 LIG 0.17  HD
ATOM     13 HE   ARG E   5     100.477 121.148   7.230  1.00 27.14 LIG 0.18  HD
ENDBRANCH 4 5
ENDBRANCH 3 4
ENDBRANCH 2 3
ENDBRANCH 1 2
BRANCH 1 14
ATOM     14  C   ARG E   5     101.202 126.420   7.202  1.00 36.20 LIG 0.24  C 
ATOM     15 O    ARG E   5     100.332 126.915   7.933  1.00 36.29 LIG-0.27  OA
ATOM     16  N   PRO E   6     101.371 126.838   5.949  1.00 37.19 LIG-0.34  N 
ATOM     17  CA  PRO E   6     100.526 127.912   5.423  1.00 38.47 LIG 0.18  C 
ATOM     18  CD  PRO E   6     102.352 126.398   4.945  1.00 36.10 LIG 0.13  C 
ATOM     19  CB  PRO E   6     101.147 128.211   4.052  1.00 37.25 LIG 0.04  C 
ATOM     20  CG  PRO E   6     102.513 127.620   4.106  1.00 36.76 LIG 0.02  C 
BRANCH 17 21
ATOM     21  C   PRO E   6      99.081 127.477   5.274  1.00 38.85 LIG 0.24  C 
ATOM     22 O    PRO E   6      98.720 126.321   5.508  1.00 38.06 LIG-0.27  OA
ATOM     23  N   ALA E   7      98.249 128.431   4.883  1.00 39.96 LIG-0.35  N 
ATOM     24 H    ALA E   7      98.463 129.257   4.779  1.00 39.96 LIG 0.16  HD
BRANCH 23 25
ATOM     25  CA  ALA E   7      96.867 128.113   4.599  1.00 39.26 LIG 0.17  C 
ATOM     26  CB  ALA E   7      95.994 129.356   4.740  1.00 41.08 LIG 0.04  C 
BRANCH 25 27
ATOM     27  C   ALA E   7      96.771 127.550   3.182  1.00 37.69 LIG 0.24  C 
ATOM     28 O    ALA E   7      96.075 126.559   2.948  1.00 38.21 LIG-0.27  OA
ATOM     29  N   PRO E   8      97.453 128.171   2.209  1.00 36.84 LIG-0.34  N 
ATOM     30  CD  PRO E   8      98.262 129.397   2.304  1.00 36.57 LIG 0.13  C 
ATOM     31  CA  PRO E   8      97.403 127.674   0.831  1.00 36.95 LIG 0.17  C 
ATOM     32  CG  PRO E   8      99.020 129.398   1.010  1.00 36.01 LIG 0.02  C 
ATOM     33  CB  PRO E   8      98.050 128.812   0.043  1.00 35.51 LIG 0.04  C 
BRANCH 31 34
ATOM     34  C   PRO E   8      98.159 126.366   0.633  1.00 39.03 LIG 0.22  C 
ATOM     35 O    PRO E   8      98.641 125.787   1.606  1.00 41.16 LIG-0.29  OA
ENDBRANCH 31 34
ENDBRANCH 25 27
ENDBRANCH 23 25
ENDBRANCH 17 21
ENDBRANCH 1 14
BRANCH 1 36
ATOM     36  N   ARG E   5     102.545 125.659   9.070  1.00 35.03 LIG-0.35  N 
ATOM     37 H    ARG E   5     102.184 125.210   9.708  1.00 35.03 LIG 0.16  HD
ATOM     38  C   THR E   4     103.446 126.611   9.233  1.00 36.29 LIG 0.24  C 
ATOM     39 O    THR E   4     103.924 127.252   8.293  1.00 35.32 LIG-0.27  OA
BRANCH 38 40
ATOM     40  CA  THR E   4     103.866 126.866  10.674  1.00 38.81 LIG 0.20  C 
BRANCH 40 41
ATOM     41  CB  THR E   4     103.122 128.073  11.227  1.00 37.77 LIG 0.15  C 
ATOM     42  CG2 THR E   4     103.736 129.339  10.689  1.00 32.08 LIG 0.04  C 
BRANCH 41 43
ATOM     43 OG1  THR E   4     101.743 128.001  10.847  1.00 38.27 LIG-0.39  OA
ATOM     44 HG1  THR E   4     101.551 127.210  10.637  1.00 38.27 LIG 0.21  HD
ENDBRANCH 41 43
ENDBRANCH 40 41
BRANCH 40 45
ATOM     45  N   THR E   4     105.301 127.073  10.750  1.00 43.44 LIG-0.34  N 
ATOM     46  C   ASP E   3     106.163 126.068  10.651  1.00 43.86 LIG 0.26  C 
ATOM     47 O    ASP E   3     105.821 124.882  10.675  1.00 40.64 LIG-0.27  OA
ATOM     48 H    THR E   4     105.534 127.894  10.863  1.00 43.44 LIG 0.16  HD
BRANCH 46 49
ATOM     49  CA  ASP E   3     107.630 126.473  10.541  1.00 46.95 LIG 0.41  C 
ATOM     50  N   ASP E   3     108.431 125.923  11.630  1.00 48.81 LIG 0.61  N 
BRANCH 49 51
ATOM     51  CB  ASP E   3     108.192 126.048   9.187  1.00 49.65 LIG 0.16  C 
BRANCH 51 52
ATOM     52  CG  ASP E   3     108.381 127.210   8.233  1.00 52.58 LIG 0.17  C 
ATOM     53 OD1  ASP E   3     109.535 127.660   8.056  1.00 53.20 LIG-0.65  OA
ATOM     54 OD2  ASP E   3     107.362 127.660   7.654  1.00 53.89 LIG-0.65  OA
ENDBRANCH 51 52
ENDBRANCH 49 51
ENDBRANCH 46 49
ENDBRANCH 40 45
ENDBRANCH 38 40
ENDBRANCH 1 36
TORSDOF 17
ENDMDL
MODEL 3
USER: ADFR SOLUTION from run 34
USER: SCORE 17.293288 LL:  -3.755 LR: -14.719 RR:   0.000 FEB:  -9.648
USER: RMSD 2.341179
USER: SEED 33
USER: STATUS no improvement in best in 3 clusters for 5 generations
USER: GENES 19
USER: genes 0 Translation |==|  0.50300 0.52772 0.52006
USER: genes 1 Rotation |==|  0.39249 0.52873 0.50456 0.98744
USER: genes 2 Torsion [C]-CA--CB-[CG] |==|  0.28383
USER: genes 3 Torsion [CA]-CB--CG-[CD] |==|  0.64179
USER: genes 4 Torsion [CB]-CG--CD-[NE] |==|  0.64758
USER: genes 5 Torsion [CG]-CD--NE-[CZ] |==|  0.43562
USER: genes 6 Torsion [N]-CA--C-[N] |==|  0.39838
USER: genes 7 Torsion [N]-CA--C-[O] |==|  0.90065
USER: genes 8 Torsion [C]-N--CA-[C] |==|  0.74455
USER: genes 9 Torsion [N]-CA--C-[N] |==|  0.40149
USER: genes 10 Torsion [N]-CA--C-[O] |==|  0.97340
USER: genes 11 Torsion [CB]-CA--N-[C] |==|  0.21447
USER: genes 12 Torsion [N]-C--CA-[N] |==|  0.88015
USER: genes 13 Torsion [C]-CA--CB-[OG1] |==|  0.80154
USER: genes 14 Torsion [CA]-CB--OG1-[HG1] |==|  0.29901
USER: genes 15 Torsion [C]-CA--N-[C] |==|  0.83542
USER: genes 16 Torsion [N]-C--CA-[N] |==|  0.19205
USER: genes 17 Torsion [C]-CA--CB-[CG] |==|  0.76129
USER: genes 18 Torsion [CA]-CB--CG-[OD1] |==|  0.03195
ROOT
ATOM      1  CA  ARG E   5     102.477 125.950   7.681  1.00 34.60 LIG 0.18  C 
ENDROOT
BRANCH 1 2
ATOM      2  CB  ARG E   5     101.569 124.946   8.372  1.00 32.17 LIG 0.04  C 
BRANCH 2 3
ATOM      3  CG  ARG E   5     101.576 123.615   7.669  1.00 30.87 LIG 0.02  C 
BRANCH 3 4
ATOM      4  CD  ARG E   5     100.183 123.149   7.390  1.00 28.77 LIG 0.14  C 
BRANCH 4 5
ATOM      5  NE  ARG E   5      99.977 121.801   7.908  1.00 27.14 LIG-0.23  N 
ATOM      6  CZ  ARG E   5      98.788 121.297   8.211  1.00 27.11 LIG 0.67  C 
ATOM      7  NH2 ARG E   5      98.690 120.059   8.681  1.00 28.81 LIG-0.23  N 
ATOM      8  NH1 ARG E   5      97.700 122.037   8.046  1.00 26.86 LIG-0.23  N 
ATOM      9 2HH2 ARG E   5      97.919 119.733   8.878  1.00 28.81 LIG 0.17  HD
ATOM     10 1HH2 ARG E   5      99.398 119.583   8.789  1.00 28.81 LIG 0.17  HD
ATOM     11 2HH1 ARG E   5      96.926 121.715   8.242  1.00 26.86 LIG 0.17  HD
ATOM     12 1HH1 ARG E   5      97.767 122.840   7.745  1.00 26.86 LIG 0.17  HD
ATOM     13 HE   ARG E   5     100.667 121.302   8.023  1.00 27.14 LIG 0.18  HD
ENDBRANCH 4 5
ENDBRANCH 3 4
ENDBRANCH 2 3
ENDBRANCH 1 2
BRANCH 1 14
ATOM     14  C   ARG E   5     101.644 126.922   6.848  1.00 36.20 LIG 0.24  C 
ATOM     15 O    ARG E   5     101.157 127.928   7.384  1.00 36.29 LIG-0.27  OA
ATOM     16  N   PRO E   6     101.451 126.666   5.556  1.00 37.19 LIG-0.34  N 
ATOM     17  CA  PRO E   6     100.661 127.593   4.743  1.00 38.47 LIG 0.18  C 
ATOM     18  CD  PRO E   6     101.959 125.552   4.741  1.00 36.10 LIG 0.13  C 
ATOM     19  CB  PRO E   6     100.830 127.049   3.319  1.00 37.25 LIG 0.04  C 
ATOM     20  CG  PRO E   6     102.024 126.160   3.380  1.00 36.76 LIG 0.02  C 
BRANCH 17 21
ATOM     21  C   PRO E   6      99.199 127.599   5.146  1.00 38.85 LIG 0.24  C 
ATOM     22 O    PRO E   6      98.621 126.574   5.517  1.00 38.06 LIG-0.27  OA
ATOM     23  N   ALA E   7      98.604 128.780   5.073  1.00 39.96 LIG-0.35  N 
ATOM     24 H    ALA E   7      99.002 129.519   4.882  1.00 39.96 LIG 0.16  HD
BRANCH 23 25
ATOM     25  CA  ALA E   7      97.185 128.892   5.324  1.00 39.26 LIG 0.17  C 
ATOM     26  CB  ALA E   7      96.864 130.227   5.988  1.00 41.08 LIG 0.04  C 
BRANCH 25 27
ATOM     27  C   ALA E   7      96.437 128.759   3.999  1.00 37.69 LIG 0.24  C 
ATOM     28 O    ALA E   7      96.923 129.207   2.958  1.00 38.21 LIG-0.27  OA
ATOM     29  N   PRO E   8      95.252 128.132   4.004  1.00 36.84 LIG-0.34  N 
ATOM     30  CD  PRO E   8      94.571 127.480   5.134  1.00 36.57 LIG 0.13  C 
ATOM     31  CA  PRO E   8      94.486 127.978   2.764  1.00 36.95 LIG 0.17  C 
ATOM     32  CG  PRO E   8      93.182 127.270   4.612  1.00 36.01 LIG 0.02  C 
ATOM     33  CB  PRO E   8      93.398 126.984   3.165  1.00 35.51 LIG 0.04  C 
BRANCH 31 34
ATOM     34  C   PRO E   8      93.883 129.283   2.259  1.00 39.03 LIG 0.22  C 
ATOM     35 O    PRO E   8      93.913 130.285   2.973  1.00 41.16 LIG-0.29  OA
ENDBRANCH 31 34
ENDBRANCH 25 27
ENDBRANCH 23 25
ENDBRANCH 17 21
ENDBRANCH 1 14
BRANCH 1 36
ATOM     36  N   ARG E   5     103.258 126.700   8.642  1.00 35.03 LIG-0.35  N 
ATOM     37 H    ARG E   5     102.980 127.499   8.794  1.00 35.03 LIG 0.16  HD
ATOM     38  C   THR E   4     104.312 126.148   9.214  1.00 36.29 LIG 0.24  C 
ATOM     39 O    THR E   4     104.697 125.005   8.952  1.00 35.32 LIG-0.27  OA
BRANCH 38 40
ATOM     40  CA  THR E   4     105.029 127.022  10.234  1.00 38.81 LIG 0.20  C 
BRANCH 40 41
ATOM     41  CB  THR E   4     104.272 127.007  11.555  1.00 37.77 LIG 0.15  C 
ATOM     42  CG2 THR E   4     105.125 127.618  12.636  1.00 32.08 LIG 0.04  C 
BRANCH 41 43
ATOM     43 OG1  THR E   4     103.054 127.747  11.418  1.00 38.27 LIG-0.39  OA
ATOM     44 HG1  THR E   4     102.403 127.217  11.408  1.00 38.27 LIG 0.21  HD
ENDBRANCH 41 43
ENDBRANCH 40 41
BRANCH 40 45
ATOM     45  N   THR E   4     105.153 128.379   9.734  1.00 43.44 LIG-0.34  N 
ATOM     46  C   ASP E   3     105.792 128.656   8.604  1.00 43.86 LIG 0.26  C 
ATOM     47 O    ASP E   3     106.479 127.828   7.997  1.00 40.64 LIG-0.27  OA
ATOM     48 H    THR E   4     104.780 128.975  10.230  1.00 43.44 LIG 0.16  HD
BRANCH 46 49
ATOM     49  CA  ASP E   3     105.656 130.093   8.110  1.00 46.95 LIG 0.41  C 
ATOM     50  N   ASP E   3     106.358 131.036   8.974  1.00 48.81 LIG 0.61  N 
BRANCH 49 51
ATOM     51  CB  ASP E   3     106.153 130.204   6.671  1.00 49.65 LIG 0.16  C 
BRANCH 51 52
ATOM     52  CG  ASP E   3     107.648 130.431   6.576  1.00 52.58 LIG 0.17  C 
ATOM     53 OD1  ASP E   3     108.344 130.288   7.606  1.00 53.20 LIG-0.65  OA
ATOM     54 OD2  ASP E   3     108.120 130.741   5.454  1.00 53.89 LIG-0.65  OA
ENDBRANCH 51 52
ENDBRANCH 49 51
ENDBRANCH 46 49
ENDBRANCH 40 45
ENDBRANCH 38 40
ENDBRANCH 1 36
TORSDOF 17
ENDMDL
MODEL 4
USER: ADFR SOLUTION from run 128
USER: SCORE 17.569095 LL:  -4.034 LR: -14.405 RR:   0.000 FEB:  -9.334
USER: RMSD 4.459376
USER: SEED 127
USER: STATUS no improvement in best in 3 clusters for 5 generations
USER: GENES 19
USER: genes 0 Translation |==|  0.47957 0.52712 0.53495
USER: genes 1 Rotation |==|  0.42908 0.44451 0.52292 0.99129
USER: genes 2 Torsion [C]-CA--CB-[CG] |==|  0.25502
USER: genes 3 Torsion [CA]-CB--CG-[CD] |==|  0.60399
USER: genes 4 Torsion [CB]-CG--CD-[NE] |==|  0.71602
USER: genes 5 Torsion [CG]-CD--NE-[CZ] |==|  0.37351
USER: genes 6 Torsion [N]-CA--C-[N] |==|  0.43999
USER: genes 7 Torsion [N]-CA--C-[O] |==|  0.83869
USER: genes 8 Torsion [C]-N--CA-[C] |==|  0.81122
USER: genes 9 Torsion [N]-CA--C-[N] |==|  0.39030
USER: genes 10 Torsion [N]-CA--C-[O] |==|  0.98276
USER: genes 11 Torsion [CB]-CA--N-[C] |==|  0.47778
USER: genes 12 Torsion [N]-C--CA-[N] |==|  0.88942
USER: genes 13 Torsion [C]-CA--CB-[OG1] |==|  0.92109
USER: genes 14 Torsion [CA]-CB--OG1-[HG1] |==|  0.82391
USER: genes 15 Torsion [C]-CA--N-[C] |==|  0.79493
USER: genes 16 Torsion [N]-C--CA-[N] |==|  0.46086
USER: genes 17 Torsion [C]-CA--CB-[CG] |==|  0.75855
USER: genes 18 Torsion [CA]-CB--CG-[OD1] |==|  0.82352
ROOT
ATOM      1  CA  ARG E   5     101.862 125.939   7.972  1.00 34.60 LIG 0.18  C 
ENDROOT
BRANCH 1 2
ATOM      2  CB  ARG E   5     100.959 124.737   8.203  1.00 32.17 LIG 0.04  C 
BRANCH 2 3
ATOM      3  CG  ARG E   5     101.221 123.646   7.201  1.00 30.87 LIG 0.02  C 
BRANCH 3 4
ATOM      4  CD  ARG E   5      99.948 122.970   6.800  1.00 28.77 LIG 0.14  C 
BRANCH 4 5
ATOM      5  NE  ARG E   5      99.808 121.687   7.479  1.00 27.14 LIG-0.23  N 
ATOM      6  CZ  ARG E   5      98.690 121.273   8.059  1.00 27.11 LIG 0.67  C 
ATOM      7  NH2 ARG E   5      98.650 120.089   8.660  1.00 28.81 LIG-0.23  N 
ATOM      8  NH1 ARG E   5      97.614 122.049   8.040  1.00 26.86 LIG-0.23  N 
ATOM      9 2HH2 ARG E   5      97.925 119.822   9.036  1.00 28.81 LIG 0.17  HD
ATOM     10 1HH2 ARG E   5      99.350 119.590   8.673  1.00 28.81 LIG 0.17  HD
ATOM     11 2HH1 ARG E   5      96.887 121.785   8.415  1.00 26.86 LIG 0.17  HD
ATOM     12 1HH1 ARG E   5      97.644 122.817   7.653  1.00 26.86 LIG 0.17  HD
ATOM     13 HE   ARG E   5     100.493 121.167   7.505  1.00 27.14 LIG 0.18  HD
ENDBRANCH 4 5
ENDBRANCH 3 4
ENDBRANCH 2 3
ENDBRANCH 1 2
BRANCH 1 14
ATOM     14  C   ARG E   5     101.172 126.942   7.051  1.00 36.20 LIG 0.24  C 
ATOM     15 O    ARG E   5     100.626 127.944   7.534  1.00 36.29 LIG-0.27  OA
ATOM     16  N   PRO E   6     101.165 126.718   5.738  1.00 37.19 LIG-0.34  N 
ATOM     17  CA  PRO E   6     100.513 127.676   4.843  1.00 38.47 LIG 0.18  C 
ATOM     18  CD  PRO E   6     101.771 125.614   4.978  1.00 36.10 LIG 0.13  C 
ATOM     19  CB  PRO E   6     100.880 127.160   3.445  1.00 37.25 LIG 0.04  C 
ATOM     20  CG  PRO E   6     102.040 126.251   3.657  1.00 36.76 LIG 0.02  C 
BRANCH 17 21
ATOM     21  C   PRO E   6      99.008 127.697   5.029  1.00 38.85 LIG 0.24  C 
ATOM     22 O    PRO E   6      98.319 126.684   4.886  1.00 38.06 LIG-0.27  OA
ATOM     23  N   ALA E   7      98.503 128.876   5.361  1.00 39.96 LIG-0.35  N 
ATOM     24 H    ALA E   7      98.968 129.578   5.531  1.00 39.96 LIG 0.16  HD
BRANCH 23 25
ATOM     25  CA  ALA E   7      97.071 129.048   5.457  1.00 39.26 LIG 0.17  C 
ATOM     26  CB  ALA E   7      96.736 130.401   6.075  1.00 41.08 LIG 0.04  C 
BRANCH 25 27
ATOM     27  C   ALA E   7      96.464 128.930   4.061  1.00 37.69 LIG 0.24  C 
ATOM     28 O    ALA E   7      97.042 129.412   3.084  1.00 38.21 LIG-0.27  OA
ATOM     29  N   PRO E   8      95.299 128.278   3.932  1.00 36.84 LIG-0.34  N 
ATOM     30  CD  PRO E   8      94.523 127.586   4.973  1.00 36.57 LIG 0.13  C 
ATOM     31  CA  PRO E   8      94.667 128.137   2.618  1.00 36.95 LIG 0.17  C 
ATOM     32  CG  PRO E   8      93.199 127.359   4.308  1.00 36.01 LIG 0.02  C 
ATOM     33  CB  PRO E   8      93.566 127.112   2.885  1.00 35.51 LIG 0.04  C 
BRANCH 31 34
ATOM     34  C   PRO E   8      94.087 129.441   2.083  1.00 39.03 LIG 0.22  C 
ATOM     35 O    PRO E   8      94.079 130.443   2.797  1.00 41.16 LIG-0.29  OA
ENDBRANCH 31 34
ENDBRANCH 25 27
ENDBRANCH 23 25
ENDBRANCH 17 21
ENDBRANCH 1 14
BRANCH 1 36
ATOM     36  N   ARG E   5     102.195 126.593   9.219  1.00 35.03 LIG-0.35  N 
ATOM     37 H    ARG E   5     101.770 126.303   9.908  1.00 35.03 LIG 0.16  HD
ATOM     38  C   THR E   4     103.094 127.559   9.241  1.00 36.29 LIG 0.24  C 
ATOM     39 O    THR E   4     103.667 127.967   8.227  1.00 35.32 LIG-0.27  OA
BRANCH 38 40
ATOM     40  CA  THR E   4     103.386 128.143  10.617  1.00 38.81 LIG 0.20  C 
BRANCH 40 41
ATOM     41  CB  THR E   4     104.386 127.262  11.354  1.00 37.77 LIG 0.15  C 
ATOM     42  CG2 THR E   4     104.129 127.333  12.836  1.00 32.08 LIG 0.04  C 
BRANCH 41 43
ATOM     43 OG1  THR E   4     104.258 125.910  10.901  1.00 38.27 LIG-0.39  OA
ATOM     44 HG1  THR E   4     103.494 125.620  11.095  1.00 38.27 LIG 0.21  HD
ENDBRANCH 41 43
ENDBRANCH 40 41
BRANCH 40 45
ATOM     45  N   THR E   4     102.158 128.268  11.380  1.00 43.44 LIG-0.34  N 
ATOM     46  C   ASP E   3     101.259 129.208  11.116  1.00 43.86 LIG 0.26  C 
ATOM     47 O    ASP E   3     101.471 130.146  10.342  1.00 40.64 LIG-0.27  OA
ATOM     48 H    THR E   4     102.071 127.686  12.008  1.00 43.44 LIG 0.16  HD
BRANCH 46 49
ATOM     49  CA  ASP E   3      99.936 129.078  11.866  1.00 46.95 LIG 0.41  C 
ATOM     50  N   ASP E   3      99.139 130.297  11.783  1.00 48.81 LIG 0.61  N 
BRANCH 49 51
ATOM     51  CB  ASP E   3      99.150 127.880  11.340  1.00 49.65 LIG 0.16  C 
BRANCH 51 52
ATOM     52  CG  ASP E   3      98.284 128.218  10.143  1.00 52.58 LIG 0.17  C 
ATOM     53 OD1  ASP E   3      97.352 129.040  10.290  1.00 53.20 LIG-0.65  OA
ATOM     54 OD2  ASP E   3      98.555 127.660   9.052  1.00 53.89 LIG-0.65  OA
ENDBRANCH 51 52
ENDBRANCH 49 51
ENDBRANCH 46 49
ENDBRANCH 40 45
ENDBRANCH 38 40
ENDBRANCH 1 36
TORSDOF 17
ENDMDL
