MODEL 1
USER: ADFR SOLUTION from run 60
USER: SCORE 15.609440 LL:  -2.335 LR: -13.934 RR:   0.000 FEB:  -9.459
USER: RMSD 6.523630
USER: SEED 59
USER: STATUS no improvement in best in 5 clusters for 5 generations
USER: GENES 17
USER: genes 0 Translation |==|  0.56663 0.51761 0.59524
USER: genes 1 Rotation |==|  0.17307 0.78707 0.67969 0.66858
USER: genes 2 Torsion [C]-CA--CB-[CG] |==|  0.25017
USER: genes 3 Torsion [CA]-CB--CG-[CD2] |==|  0.33944
USER: genes 4 Torsion [CE2]-CZ--OH-[HH] |==|  0.34913
USER: genes 5 Torsion [N]-CA--C-[N] |==|  0.81673
USER: genes 6 Torsion [C]-N--CA-[C] |==|  0.65197
USER: genes 7 Torsion [N]-CA--C-[O] |==|  0.11913
USER: genes 8 Torsion [N]-CA--CB-[CG] |==|  0.14817
USER: genes 9 Torsion [CA]-CB--CG-[CD2] |==|  0.81558
USER: genes 10 Torsion [CE2]-CZ--OH-[HH] |==|  0.68554
USER: genes 11 Torsion [CB]-CA--N-[C] |==|  0.20556
USER: genes 12 Torsion [N]-C--CA-[N] |==|  0.16375
USER: genes 13 Torsion [C]-CA--CB-[CG] |==|  0.80787
USER: genes 14 Torsion [CA]-CB--CG-[CD1] |==|  0.29959
USER: genes 15 Torsion [CE1]-CZ--OH-[HH] |==|  0.99411
USER: genes 16 Torsion [C]-CA--N-[H1] |==|  0.79452
ROOT
ATOM      1  CA  TYR B   2      61.969 149.752   4.019  1.00 28.44 LIG 0.18  C 
ENDROOT
BRANCH 1 2
ATOM      2  CB  TYR B   2      62.842 150.787   3.300  1.00 30.17 LIG 0.07  C 
BRANCH 2 3
ATOM      3  CG  TYR B   2      63.734 151.629   4.198  1.00 31.12 LIG-0.06  A 
ATOM      4  CD2 TYR B   2      65.125 151.648   4.019  1.00 31.81 LIG 0.01  A 
ATOM      5  CE2 TYR B   2      65.945 152.423   4.836  1.00 33.15 LIG 0.04  A 
ATOM      6  CZ  TYR B   2      65.378 153.190   5.847  1.00 33.29 LIG 0.07  A 
ATOM      7  CE1 TYR B   2      63.996 153.196   6.048  1.00 33.06 LIG 0.04  A 
ATOM      8  CD1 TYR B   2      63.185 152.419   5.224  1.00 32.67 LIG 0.01  A 
BRANCH 6 9
ATOM      9 OH   TYR B   2      66.189 153.947   6.654  1.00 34.60 LIG-0.36  OA
ATOM     10 HH   TYR B   2      65.928 154.745   6.644  1.00 34.60 LIG 0.22  HD
ENDBRANCH 6 9
ENDBRANCH 2 3
ENDBRANCH 1 2
BRANCH 1 11
ATOM     11  C   TYR B   2      60.633 150.360   4.392  1.00 30.52 LIG 0.24  C 
ATOM     12  N   TYR B   3      59.954 150.904   3.387  1.00 32.89 LIG-0.35  N 
ATOM     13 H    TYR B   3      60.255 150.951   2.582  1.00 32.89 LIG 0.16  HD
ATOM     14 O    TYR B   2      60.234 150.339   5.561  1.00 30.24 LIG-0.27  OA
BRANCH 12 15
ATOM     15  CA  TYR B   3      58.626 151.478   3.554  1.00 36.06 LIG 0.17  C 
BRANCH 15 16
ATOM     16  C   TYR B   3      57.628 150.853   2.579  1.00 37.31 LIG 0.22  C 
ATOM     17 O    TYR B   3      57.624 149.635   2.378  1.00 39.71 LIG-0.29  OA
ENDBRANCH 15 16
BRANCH 15 18
ATOM     18  CB  TYR B   3      58.678 152.998   3.375  1.00 37.43 LIG 0.07  C 
BRANCH 18 19
ATOM     19  CG  TYR B   3      59.323 153.435   2.082  1.00 38.24 LIG-0.06  A 
ATOM     20  CD2 TYR B   3      60.684 153.207   1.842  1.00 38.70 LIG 0.01  A 
ATOM     21  CE2 TYR B   3      61.276 153.605   0.647  1.00 39.79 LIG 0.04  A 
ATOM     22  CZ  TYR B   3      60.505 154.241  -0.320  1.00 40.15 LIG 0.07  A 
ATOM     23  CE1 TYR B   3      59.150 154.480  -0.106  1.00 39.97 LIG 0.04  A 
ATOM     24  CD1 TYR B   3      58.569 154.077   1.087  1.00 39.23 LIG 0.01  A 
BRANCH 22 25
ATOM     25 OH   TYR B   3      61.070 154.645  -1.508  1.00 40.04 LIG-0.36  OA
ATOM     26 HH   TYR B   3      61.069 155.484  -1.547  1.00 40.04 LIG 0.22  HD
ENDBRANCH 22 25
ENDBRANCH 18 19
ENDBRANCH 15 18
ENDBRANCH 12 15
ENDBRANCH 1 11
BRANCH 1 27
ATOM     27  N   TYR B   2      61.746 148.607   3.152  1.00 25.33 LIG-0.35  N 
ATOM     28  C   TYR B   1      62.682 147.699   2.892  1.00 22.87 LIG 0.25  C 
ATOM     29 O    TYR B   1      63.791 147.688   3.434  1.00 21.86 LIG-0.27  OA
ATOM     30 H    TYR B   2      60.952 148.571   2.824  1.00 25.33 LIG 0.16  HD
BRANCH 28 31
ATOM     31  CA  TYR B   1      62.302 146.634   1.865  1.00 21.88 LIG 0.28  C 
BRANCH 31 32
ATOM     32  CB  TYR B   1      63.458 145.644   1.705  1.00 21.24 LIG 0.08  C 
BRANCH 32 33
ATOM     33  CG  TYR B   1      64.685 146.210   1.034  1.00 20.81 LIG-0.06  A 
ATOM     34  CD1 TYR B   1      65.850 146.468   1.769  1.00 20.37 LIG 0.01  A 
ATOM     35  CE1 TYR B   1      66.984 146.989   1.153  1.00 19.95 LIG 0.04  A 
ATOM     36  CZ  TYR B   1      66.953 147.256  -0.218  1.00 20.32 LIG 0.07  A 
ATOM     37  CE2 TYR B   1      65.809 147.007  -0.965  1.00 20.63 LIG 0.04  A 
ATOM     38  CD2 TYR B   1      64.685 146.489  -0.339  1.00 20.57 LIG 0.01  A 
BRANCH 36 39
ATOM     39 OH   TYR B   1      68.057 147.766  -0.857  1.00 20.56 LIG-0.36  OA
ATOM     40 HH   TYR B   1      68.670 147.896  -0.297  1.00 20.56 LIG 0.22  HD
ENDBRANCH 36 39
ENDBRANCH 32 33
ENDBRANCH 31 32
BRANCH 31 41
ATOM     41  N   TYR B   1      61.944 147.234   0.543  1.00 21.11 LIG-0.07  N 
ATOM     42 H2   TYR B   1      62.550 147.847   0.320  1.00 21.11 LIG 0.28  HD
ATOM     43 H1   TYR B   1      61.142 147.616   0.598  1.00 21.11 LIG 0.28  HD
ATOM     44 H3   TYR B   1      61.927 146.596  -0.078  1.00 21.11 LIG 0.28  HD
ENDBRANCH 31 41
ENDBRANCH 28 31
ENDBRANCH 1 27
TORSDOF 15
ENDMDL
MODEL 2
USER: ADFR SOLUTION from run 15
USER: SCORE 14.787815 LL:  -2.006 LR: -13.603 RR:   0.000 FEB:  -9.129
USER: RMSD 4.565595
USER: SEED 277337
USER: STATUS no improvement in best in 5 clusters for 5 generations
USER: GENES 17
USER: genes 0 Translation |==|  0.42756 0.41523 0.48143
USER: genes 1 Rotation |==|  0.45433 0.51556 0.50821 0.99760
USER: genes 2 Torsion [C]-CA--CB-[CG] |==|  0.73275
USER: genes 3 Torsion [CA]-CB--CG-[CD2] |==|  0.27503
USER: genes 4 Torsion [CE2]-CZ--OH-[HH] |==|  0.01424
USER: genes 5 Torsion [N]-CA--C-[N] |==|  0.86556
USER: genes 6 Torsion [C]-N--CA-[C] |==|  0.88997
USER: genes 7 Torsion [N]-CA--C-[O] |==|  0.28241
USER: genes 8 Torsion [N]-CA--CB-[CG] |==|  0.23978
USER: genes 9 Torsion [CA]-CB--CG-[CD2] |==|  0.69423
USER: genes 10 Torsion [CE2]-CZ--OH-[HH] |==|  0.60953
USER: genes 11 Torsion [CB]-CA--N-[C] |==|  0.24444
USER: genes 12 Torsion [N]-C--CA-[N] |==|  0.02622
USER: genes 13 Torsion [C]-CA--CB-[CG] |==|  0.51750
USER: genes 14 Torsion [CA]-CB--CG-[CD1] |==|  0.32814
USER: genes 15 Torsion [CE1]-CZ--OH-[HH] |==|  0.96221
USER: genes 16 Torsion [C]-CA--N-[H1] |==|  0.84984
ROOT
ATOM      1  CA  TYR B   2      58.527 147.678   2.227  1.00 28.44 LIG 0.18  C 
ENDROOT
BRANCH 1 2
ATOM      2  CB  TYR B   2      58.795 146.952   3.550  1.00 30.17 LIG 0.07  C 
BRANCH 2 3
ATOM      3  CG  TYR B   2      60.160 147.205   4.171  1.00 31.12 LIG-0.06  A 
ATOM      4  CD2 TYR B   2      60.320 148.136   5.206  1.00 31.81 LIG 0.01  A 
ATOM      5  CE2 TYR B   2      61.567 148.366   5.783  1.00 33.15 LIG 0.04  A 
ATOM      6  CZ  TYR B   2      62.674 147.662   5.324  1.00 33.29 LIG 0.07  A 
ATOM      7  CE1 TYR B   2      62.547 146.724   4.298  1.00 33.06 LIG 0.04  A 
ATOM      8  CD1 TYR B   2      61.294 146.500   3.730  1.00 32.67 LIG 0.01  A 
BRANCH 6 9
ATOM      9 OH   TYR B   2      63.902 147.895   5.889  1.00 34.60 LIG-0.36  OA
ATOM     10 HH   TYR B   2      63.817 148.426   6.534  1.00 34.60 LIG 0.22  HD
ENDBRANCH 6 9
ENDBRANCH 2 3
ENDBRANCH 1 2
BRANCH 1 11
ATOM     11  C   TYR B   2      57.768 148.964   2.479  1.00 30.52 LIG 0.24  C 
ATOM     12  N   TYR B   3      58.473 149.942   3.040  1.00 32.89 LIG-0.35  N 
ATOM     13 H    TYR B   3      59.293 149.855   3.285  1.00 32.89 LIG 0.16  HD
ATOM     14 O    TYR B   2      56.574 149.062   2.176  1.00 30.24 LIG-0.27  OA
BRANCH 12 15
ATOM     15  CA  TYR B   3      57.919 151.265   3.296  1.00 36.06 LIG 0.17  C 
BRANCH 15 16
ATOM     16  C   TYR B   3      57.024 151.720   2.144  1.00 37.31 LIG 0.22  C 
ATOM     17 O    TYR B   3      55.795 151.657   2.240  1.00 39.71 LIG-0.29  OA
ENDBRANCH 15 16
BRANCH 15 18
ATOM     18  CB  TYR B   3      59.046 152.274   3.537  1.00 37.43 LIG 0.07  C 
BRANCH 18 19
ATOM     19  CG  TYR B   3      59.593 152.887   2.271  1.00 38.24 LIG-0.06  A 
ATOM     20  CD2 TYR B   3      60.880 152.572   1.815  1.00 38.70 LIG 0.01  A 
ATOM     21  CE2 TYR B   3      61.381 153.134   0.644  1.00 39.79 LIG 0.04  A 
ATOM     22  CZ  TYR B   3      60.594 154.022  -0.080  1.00 40.15 LIG 0.07  A 
ATOM     23  CE1 TYR B   3      59.312 154.353   0.352  1.00 39.97 LIG 0.04  A 
ATOM     24  CD1 TYR B   3      58.821 153.786   1.519  1.00 39.23 LIG 0.01  A 
BRANCH 22 25
ATOM     25 OH   TYR B   3      61.070 154.591  -1.239  1.00 40.04 LIG-0.36  OA
ATOM     26 HH   TYR B   3      60.829 155.395  -1.275  1.00 40.04 LIG 0.22  HD
ENDBRANCH 22 25
ENDBRANCH 18 19
ENDBRANCH 15 18
ENDBRANCH 12 15
ENDBRANCH 1 11
BRANCH 1 27
ATOM     27  N   TYR B   2      59.786 147.989   1.570  1.00 25.33 LIG-0.35  N 
ATOM     28  C   TYR B   1      60.400 147.150   0.741  1.00 22.87 LIG 0.25  C 
ATOM     29 O    TYR B   1      59.916 146.075   0.377  1.00 21.86 LIG-0.27  OA
ATOM     30 H    TYR B   2      60.096 148.767   1.768  1.00 25.33 LIG 0.16  HD
BRANCH 28 31
ATOM     31  CA  TYR B   1      61.772 147.600   0.242  1.00 21.88 LIG 0.28  C 
BRANCH 31 32
ATOM     32  CB  TYR B   1      62.772 146.452   0.390  1.00 21.24 LIG 0.08  C 
BRANCH 32 33
ATOM     33  CG  TYR B   1      64.201 146.815   0.070  1.00 20.81 LIG-0.06  A 
ATOM     34  CD1 TYR B   1      65.201 146.725   1.048  1.00 20.37 LIG 0.01  A 
ATOM     35  CE1 TYR B   1      66.520 147.058   0.755  1.00 19.95 LIG 0.04  A 
ATOM     36  CZ  TYR B   1      66.844 147.489  -0.534  1.00 20.32 LIG 0.07  A 
ATOM     37  CE2 TYR B   1      65.869 147.585  -1.518  1.00 20.63 LIG 0.04  A 
ATOM     38  CD2 TYR B   1      64.557 147.250  -1.213  1.00 20.57 LIG 0.01  A 
BRANCH 36 39
ATOM     39 OH   TYR B   1      68.138 147.820  -0.856  1.00 20.56 LIG-0.36  OA
ATOM     40 HH   TYR B   1      68.591 147.899  -0.153  1.00 20.56 LIG 0.22  HD
ENDBRANCH 36 39
ENDBRANCH 32 33
ENDBRANCH 31 32
BRANCH 31 41
ATOM     41  N   TYR B   1      62.261 148.813   0.967  1.00 21.11 LIG-0.07  N 
ATOM     42 H2   TYR B   1      62.410 148.609   1.821  1.00 21.11 LIG 0.28  HD
ATOM     43 H1   TYR B   1      61.647 149.456   0.918  1.00 21.11 LIG 0.28  HD
ATOM     44 H3   TYR B   1      63.018 149.096   0.594  1.00 21.11 LIG 0.28  HD
ENDBRANCH 31 41
ENDBRANCH 28 31
ENDBRANCH 1 27
TORSDOF 15
ENDMDL
MODEL 3
USER: ADFR SOLUTION from run 174
USER: SCORE 14.042286 LL:  -1.433 LR: -13.291 RR:   0.000 FEB:  -8.817
USER: RMSD 3.549912
USER: SEED 173
USER: STATUS no improvement in best in 6 clusters for 5 generations
USER: GENES 17
USER: genes 0 Translation |==|  0.42433 0.43196 0.49732
USER: genes 1 Rotation |==|  0.43724 0.49122 0.50348 0.99596
USER: genes 2 Torsion [C]-CA--CB-[CG] |==|  0.30342
USER: genes 3 Torsion [CA]-CB--CG-[CD2] |==|  0.19350
USER: genes 4 Torsion [CE2]-CZ--OH-[HH] |==|  0.89032
USER: genes 5 Torsion [N]-CA--C-[N] |==|  0.84934
USER: genes 6 Torsion [C]-N--CA-[C] |==|  0.91536
USER: genes 7 Torsion [N]-CA--C-[O] |==|  0.35389
USER: genes 8 Torsion [N]-CA--CB-[CG] |==|  0.24225
USER: genes 9 Torsion [CA]-CB--CG-[CD2] |==|  0.21365
USER: genes 10 Torsion [CE2]-CZ--OH-[HH] |==|  0.06161
USER: genes 11 Torsion [CB]-CA--N-[C] |==|  0.22777
USER: genes 12 Torsion [N]-C--CA-[N] |==|  0.04179
USER: genes 13 Torsion [C]-CA--CB-[CG] |==|  0.47437
USER: genes 14 Torsion [CA]-CB--CG-[CD1] |==|  0.34639
USER: genes 15 Torsion [CE1]-CZ--OH-[HH] |==|  0.95125
USER: genes 16 Torsion [C]-CA--N-[H1] |==|  0.73513
ROOT
ATOM      1  CA  TYR B   2      58.447 148.017   2.477  1.00 28.44 LIG 0.18  C 
ENDROOT
BRANCH 1 2
ATOM      2  CB  TYR B   2      58.575 147.381   3.867  1.00 30.17 LIG 0.07  C 
BRANCH 2 3
ATOM      3  CG  TYR B   2      57.749 146.124   4.089  1.00 31.12 LIG-0.06  A 
ATOM      4  CD2 TYR B   2      58.070 144.925   3.436  1.00 31.81 LIG 0.01  A 
ATOM      5  CE2 TYR B   2      57.320 143.769   3.642  1.00 33.15 LIG 0.04  A 
ATOM      6  CZ  TYR B   2      56.234 143.803   4.509  1.00 33.29 LIG 0.07  A 
ATOM      7  CE1 TYR B   2      55.891 144.980   5.178  1.00 33.06 LIG 0.04  A 
ATOM      8  CD1 TYR B   2      56.649 146.130   4.965  1.00 32.67 LIG 0.01  A 
BRANCH 6 9
ATOM      9 OH   TYR B   2      55.494 142.665   4.705  1.00 34.60 LIG-0.36  OA
ATOM     10 HH   TYR B   2      55.404 142.260   3.975  1.00 34.60 LIG 0.22  HD
ENDBRANCH 6 9
ENDBRANCH 2 3
ENDBRANCH 1 2
BRANCH 1 11
ATOM     11  C   TYR B   2      57.681 149.320   2.565  1.00 30.52 LIG 0.24  C 
ATOM     12  N   TYR B   3      58.290 150.295   3.234  1.00 32.89 LIG-0.35  N 
ATOM     13 H    TYR B   3      59.048 150.198   3.628  1.00 32.89 LIG 0.16  HD
ATOM     14 O    TYR B   2      56.566 149.434   2.045  1.00 30.24 LIG-0.27  OA
BRANCH 12 15
ATOM     15  CA  TYR B   3      57.725 151.632   3.363  1.00 36.06 LIG 0.17  C 
BRANCH 15 16
ATOM     16  C   TYR B   3      56.878 151.994   2.144  1.00 37.31 LIG 0.22  C 
ATOM     17 O    TYR B   3      55.718 152.394   2.281  1.00 39.71 LIG-0.29  OA
ENDBRANCH 15 16
BRANCH 15 18
ATOM     18  CB  TYR B   3      58.841 152.661   3.572  1.00 37.43 LIG 0.07  C 
BRANCH 18 19
ATOM     19  CG  TYR B   3      59.425 153.192   2.285  1.00 38.24 LIG-0.06  A 
ATOM     20  CD2 TYR B   3      58.740 154.148   1.524  1.00 38.70 LIG 0.01  A 
ATOM     21  CE2 TYR B   3      59.282 154.641   0.340  1.00 39.79 LIG 0.04  A 
ATOM     22  CZ  TYR B   3      60.518 154.174  -0.094  1.00 40.15 LIG 0.07  A 
ATOM     23  CE1 TYR B   3      61.217 153.222   0.643  1.00 39.97 LIG 0.04  A 
ATOM     24  CD1 TYR B   3      60.670 152.739   1.823  1.00 39.23 LIG 0.01  A 
BRANCH 22 25
ATOM     25 OH   TYR B   3      61.070 154.645  -1.262  1.00 40.04 LIG-0.36  OA
ATOM     26 HH   TYR B   3      60.736 155.392  -1.449  1.00 40.04 LIG 0.22  HD
ENDBRANCH 22 25
ENDBRANCH 18 19
ENDBRANCH 15 18
ENDBRANCH 12 15
ENDBRANCH 1 11
BRANCH 1 27
ATOM     27  N   TYR B   2      59.768 148.278   1.930  1.00 25.33 LIG-0.35  N 
ATOM     28  C   TYR B   1      60.501 147.347   1.325  1.00 22.87 LIG 0.25  C 
ATOM     29 O    TYR B   1      60.092 146.207   1.085  1.00 21.86 LIG-0.27  OA
ATOM     30 H    TYR B   2      60.032 149.090   2.034  1.00 25.33 LIG 0.16  HD
BRANCH 28 31
ATOM     31  CA  TYR B   1      61.910 147.774   0.922  1.00 21.88 LIG 0.28  C 
BRANCH 31 32
ATOM     32  CB  TYR B   1      62.897 146.649   1.243  1.00 21.24 LIG 0.08  C 
BRANCH 32 33
ATOM     33  CG  TYR B   1      64.288 146.855   0.696  1.00 20.81 LIG-0.06  A 
ATOM     34  CD1 TYR B   1      65.405 146.821   1.542  1.00 20.37 LIG 0.01  A 
ATOM     35  CE1 TYR B   1      66.688 147.009   1.039  1.00 19.95 LIG 0.04  A 
ATOM     36  CZ  TYR B   1      66.859 147.236  -0.328  1.00 20.32 LIG 0.07  A 
ATOM     37  CE2 TYR B   1      65.766 147.274  -1.184  1.00 20.63 LIG 0.04  A 
ATOM     38  CD2 TYR B   1      64.491 147.085  -0.671  1.00 20.57 LIG 0.01  A 
BRANCH 36 39
ATOM     39 OH   TYR B   1      68.114 147.421  -0.856  1.00 20.56 LIG-0.36  OA
ATOM     40 HH   TYR B   1      68.652 147.612  -0.239  1.00 20.56 LIG 0.22  HD
ENDBRANCH 36 39
ENDBRANCH 32 33
ENDBRANCH 31 32
BRANCH 31 41
ATOM     41  N   TYR B   1      62.327 149.040   1.600  1.00 21.11 LIG-0.07  N 
ATOM     42 H2   TYR B   1      61.869 149.137   2.357  1.00 21.11 LIG 0.28  HD
ATOM     43 H1   TYR B   1      62.163 149.732   1.064  1.00 21.11 LIG 0.28  HD
ATOM     44 H3   TYR B   1      63.197 149.006   1.783  1.00 21.11 LIG 0.28  HD
ENDBRANCH 31 41
ENDBRANCH 28 31
ENDBRANCH 1 27
TORSDOF 15
ENDMDL
MODEL 4
USER: ADFR SOLUTION from run 103
USER: SCORE 14.796372 LL:  -1.805 LR: -13.124 RR:   0.000 FEB:  -8.649
USER: RMSD 3.871754
USER: SEED 102
USER: STATUS no improvement in best in 7 clusters for 5 generations
USER: GENES 17
USER: genes 0 Translation |==|  0.47439 0.43050 0.61413
USER: genes 1 Rotation |==|  0.40136 0.59214 0.52992 0.98051
USER: genes 2 Torsion [C]-CA--CB-[CG] |==|  0.26902
USER: genes 3 Torsion [CA]-CB--CG-[CD2] |==|  0.50577
USER: genes 4 Torsion [CE2]-CZ--OH-[HH] |==|  0.80283
USER: genes 5 Torsion [N]-CA--C-[N] |==|  0.08055
USER: genes 6 Torsion [C]-N--CA-[C] |==|  0.61329
USER: genes 7 Torsion [N]-CA--C-[O] |==|  0.12632
USER: genes 8 Torsion [N]-CA--CB-[CG] |==|  0.25106
USER: genes 9 Torsion [CA]-CB--CG-[CD2] |==|  0.23477
USER: genes 10 Torsion [CE2]-CZ--OH-[HH] |==|  0.05795
USER: genes 11 Torsion [CB]-CA--N-[C] |==|  0.18294
USER: genes 12 Torsion [N]-C--CA-[N] |==|  0.16108
USER: genes 13 Torsion [C]-CA--CB-[CG] |==|  0.56758
USER: genes 14 Torsion [CA]-CB--CG-[CD1] |==|  0.25202
USER: genes 15 Torsion [CE1]-CZ--OH-[HH] |==|  0.92970
USER: genes 16 Torsion [C]-CA--N-[H1] |==|  0.54318
ROOT
ATOM      1  CA  TYR B   2      59.686 147.988   4.317  1.00 28.44 LIG 0.18  C 
ENDROOT
BRANCH 1 2
ATOM      2  CB  TYR B   2      60.408 147.587   5.609  1.00 30.17 LIG 0.07  C 
BRANCH 2 3
ATOM      3  CG  TYR B   2      59.685 146.565   6.472  1.00 31.12 LIG-0.06  A 
ATOM      4  CD2 TYR B   2      60.220 146.149   7.699  1.00 31.81 LIG 0.01  A 
ATOM      5  CE2 TYR B   2      59.557 145.219   8.496  1.00 33.15 LIG 0.04  A 
ATOM      6  CZ  TYR B   2      58.344 144.691   8.069  1.00 33.29 LIG 0.07  A 
ATOM      7  CE1 TYR B   2      57.783 145.088   6.854  1.00 33.06 LIG 0.04  A 
ATOM      8  CD1 TYR B   2      58.453 146.021   6.066  1.00 32.67 LIG 0.01  A 
BRANCH 6 9
ATOM      9 OH   TYR B   2      57.697 143.770   8.853  1.00 34.60 LIG-0.36  OA
ATOM     10 HH   TYR B   2      58.119 143.044   8.838  1.00 34.60 LIG 0.22  HD
ENDBRANCH 6 9
ENDBRANCH 2 3
ENDBRANCH 1 2
BRANCH 1 11
ATOM     11  C   TYR B   2      58.913 149.273   4.525  1.00 30.52 LIG 0.24  C 
ATOM     12  N   TYR B   3      58.782 150.040   3.446  1.00 32.89 LIG-0.35  N 
ATOM     13 H    TYR B   3      59.138 149.854   2.686  1.00 32.89 LIG 0.16  HD
ATOM     14 O    TYR B   2      58.454 149.561   5.635  1.00 30.24 LIG-0.27  OA
BRANCH 12 15
ATOM     15  CA  TYR B   3      58.017 151.280   3.451  1.00 36.06 LIG 0.17  C 
BRANCH 15 16
ATOM     16  C   TYR B   3      57.199 151.429   2.169  1.00 37.31 LIG 0.22  C 
ATOM     17 O    TYR B   3      56.548 150.479   1.725  1.00 39.71 LIG-0.29  OA
ENDBRANCH 15 16
BRANCH 15 18
ATOM     18  CB  TYR B   3      58.951 152.479   3.640  1.00 37.43 LIG 0.07  C 
BRANCH 18 19
ATOM     19  CG  TYR B   3      59.465 153.058   2.343  1.00 38.24 LIG-0.06  A 
ATOM     20  CD2 TYR B   3      58.711 153.994   1.624  1.00 38.70 LIG 0.01  A 
ATOM     21  CE2 TYR B   3      59.187 154.531   0.431  1.00 39.79 LIG 0.04  A 
ATOM     22  CZ  TYR B   3      60.427 154.129  -0.053  1.00 40.15 LIG 0.07  A 
ATOM     23  CE1 TYR B   3      61.195 153.199   0.642  1.00 39.97 LIG 0.04  A 
ATOM     24  CD1 TYR B   3      60.713 152.672   1.831  1.00 39.23 LIG 0.01  A 
BRANCH 22 25
ATOM     25 OH   TYR B   3      60.916 154.645  -1.231  1.00 40.04 LIG-0.36  OA
ATOM     26 HH   TYR B   3      60.529 155.370  -1.401  1.00 40.04 LIG 0.22  HD
ENDBRANCH 22 25
ENDBRANCH 18 19
ENDBRANCH 15 18
ENDBRANCH 12 15
ENDBRANCH 1 11
BRANCH 1 27
ATOM     27  N   TYR B   2      60.655 148.181   3.250  1.00 25.33 LIG-0.35  N 
ATOM     28  C   TYR B   1      61.391 147.193   2.749  1.00 22.87 LIG 0.25  C 
ATOM     29 O    TYR B   1      61.253 146.009   3.071  1.00 21.86 LIG-0.27  OA
ATOM     30 H    TYR B   2      60.707 148.994   2.974  1.00 25.33 LIG 0.16  HD
BRANCH 28 31
ATOM     31  CA  TYR B   1      62.439 147.608   1.719  1.00 21.88 LIG 0.28  C 
BRANCH 31 32
ATOM     32  CB  TYR B   1      63.187 146.368   1.224  1.00 21.24 LIG 0.08  C 
BRANCH 32 33
ATOM     33  CG  TYR B   1      64.569 146.641   0.681  1.00 20.81 LIG-0.06  A 
ATOM     34  CD1 TYR B   1      65.691 146.596   1.520  1.00 20.37 LIG 0.01  A 
ATOM     35  CE1 TYR B   1      66.966 146.845   1.022  1.00 19.95 LIG 0.04  A 
ATOM     36  CZ  TYR B   1      67.123 147.145  -0.333  1.00 20.32 LIG 0.07  A 
ATOM     37  CE2 TYR B   1      66.025 147.195  -1.181  1.00 20.63 LIG 0.04  A 
ATOM     38  CD2 TYR B   1      64.758 146.945  -0.673  1.00 20.57 LIG 0.01  A 
BRANCH 36 39
ATOM     39 OH   TYR B   1      68.369 147.392  -0.856  1.00 20.56 LIG-0.36  OA
ATOM     40 HH   TYR B   1      68.878 147.669  -0.248  1.00 20.56 LIG 0.22  HD
ENDBRANCH 36 39
ENDBRANCH 32 33
ENDBRANCH 31 32
BRANCH 31 41
ATOM     41  N   TYR B   1      63.401 148.610   2.271  1.00 21.11 LIG-0.07  N 
ATOM     42 H2   TYR B   1      62.954 149.232   2.725  1.00 21.11 LIG 0.28  HD
ATOM     43 H1   TYR B   1      63.846 148.994   1.602  1.00 21.11 LIG 0.28  HD
ATOM     44 H3   TYR B   1      63.976 148.202   2.814  1.00 21.11 LIG 0.28  HD
ENDBRANCH 31 41
ENDBRANCH 28 31
ENDBRANCH 1 27
TORSDOF 15
ENDMDL
MODEL 5
USER: ADFR SOLUTION from run 97
USER: SCORE 14.612501 LL:  -2.508 LR: -13.062 RR:   0.000 FEB:  -8.587
USER: RMSD 5.590597
USER: SEED 96
USER: STATUS no improvement in best in 9 clusters for 5 generations
USER: GENES 17
USER: genes 0 Translation |==|  0.50923 0.46594 0.53053
USER: genes 1 Rotation |==|  0.43689 0.64976 0.39093 0.96010
USER: genes 2 Torsion [C]-CA--CB-[CG] |==|  0.85667
USER: genes 3 Torsion [CA]-CB--CG-[CD2] |==|  0.85098
USER: genes 4 Torsion [CE2]-CZ--OH-[HH] |==|  0.75253
USER: genes 5 Torsion [N]-CA--C-[N] |==|  0.41349
USER: genes 6 Torsion [C]-N--CA-[C] |==|  0.64779
USER: genes 7 Torsion [N]-CA--C-[O] |==|  0.92662
USER: genes 8 Torsion [N]-CA--CB-[CG] |==|  0.76285
USER: genes 9 Torsion [CA]-CB--CG-[CD2] |==|  0.50534
USER: genes 10 Torsion [CE2]-CZ--OH-[HH] |==|  0.11970
USER: genes 11 Torsion [CB]-CA--N-[C] |==|  0.23121
USER: genes 12 Torsion [N]-C--CA-[N] |==|  0.92155
USER: genes 13 Torsion [C]-CA--CB-[CG] |==|  0.63270
USER: genes 14 Torsion [CA]-CB--CG-[CD1] |==|  0.30749
USER: genes 15 Torsion [CE1]-CZ--OH-[HH] |==|  0.96114
USER: genes 16 Torsion [C]-CA--N-[H1] |==|  0.23712
ROOT
ATOM      1  CA  TYR B   2      60.548 148.705   3.000  1.00 28.44 LIG 0.18  C 
ENDROOT
BRANCH 1 2
ATOM      2  CB  TYR B   2      61.068 147.907   4.202  1.00 30.17 LIG 0.07  C 
BRANCH 2 3
ATOM      3  CG  TYR B   2      62.462 148.280   4.681  1.00 31.12 LIG-0.06  A 
ATOM      4  CD2 TYR B   2      63.549 148.295   3.796  1.00 31.81 LIG 0.01  A 
ATOM      5  CE2 TYR B   2      64.826 148.644   4.230  1.00 33.15 LIG 0.04  A 
ATOM      6  CZ  TYR B   2      65.029 148.981   5.563  1.00 33.29 LIG 0.07  A 
ATOM      7  CE1 TYR B   2      63.966 148.980   6.468  1.00 33.06 LIG 0.04  A 
ATOM      8  CD1 TYR B   2      62.692 148.632   6.023  1.00 32.67 LIG 0.01  A 
BRANCH 6 9
ATOM      9 OH   TYR B   2      66.289 149.318   5.989  1.00 34.60 LIG-0.36  OA
ATOM     10 HH   TYR B   2      66.696 148.625   6.234  1.00 34.60 LIG 0.22  HD
ENDBRANCH 6 9
ENDBRANCH 2 3
ENDBRANCH 1 2
BRANCH 1 11
ATOM     11  C   TYR B   2      60.684 150.191   3.259  1.00 30.52 LIG 0.24  C 
ATOM     12  N   TYR B   3      59.633 150.767   3.835  1.00 32.89 LIG-0.35  N 
ATOM     13 H    TYR B   3      58.905 150.349   4.019  1.00 32.89 LIG 0.16  HD
ATOM     14 O    TYR B   2      61.713 150.796   2.940  1.00 30.24 LIG-0.27  OA
BRANCH 12 15
ATOM     15  CA  TYR B   3      59.617 152.174   4.213  1.00 36.06 LIG 0.17  C 
BRANCH 15 16
ATOM     16  C   TYR B   3      59.230 152.347   5.682  1.00 37.31 LIG 0.22  C 
ATOM     17 O    TYR B   3      58.534 151.502   6.252  1.00 39.71 LIG-0.29  OA
ENDBRANCH 15 16
BRANCH 15 18
ATOM     18  CB  TYR B   3      58.661 152.955   3.306  1.00 37.43 LIG 0.07  C 
BRANCH 18 19
ATOM     19  CG  TYR B   3      59.293 153.419   2.015  1.00 38.24 LIG-0.06  A 
ATOM     20  CD2 TYR B   3      58.567 154.181   1.091  1.00 38.70 LIG 0.01  A 
ATOM     21  CE2 TYR B   3      59.151 154.612  -0.096  1.00 39.79 LIG 0.04  A 
ATOM     22  CZ  TYR B   3      60.473 154.277  -0.369  1.00 40.15 LIG 0.07  A 
ATOM     23  CE1 TYR B   3      61.216 153.519   0.532  1.00 39.97 LIG 0.04  A 
ATOM     24  CD1 TYR B   3      60.625 153.097   1.714  1.00 39.23 LIG 0.01  A 
BRANCH 22 25
ATOM     25 OH   TYR B   3      61.070 154.690  -1.538  1.00 40.04 LIG-0.36  OA
ATOM     26 HH   TYR B   3      60.867 155.491  -1.688  1.00 40.04 LIG 0.22  HD
ENDBRANCH 22 25
ENDBRANCH 18 19
ENDBRANCH 15 18
ENDBRANCH 12 15
ENDBRANCH 1 11
BRANCH 1 27
ATOM     27  N   TYR B   2      61.308 148.358   1.810  1.00 25.33 LIG-0.35  N 
ATOM     28  C   TYR B   1      61.038 147.292   1.061  1.00 22.87 LIG 0.25  C 
ATOM     29 O    TYR B   1      60.065 146.556   1.247  1.00 21.86 LIG-0.27  OA
ATOM     30 H    TYR B   2      61.947 148.906   1.636  1.00 25.33 LIG 0.16  HD
BRANCH 28 31
ATOM     31  CA  TYR B   1      62.017 147.022  -0.079  1.00 21.88 LIG 0.28  C 
BRANCH 31 32
ATOM     32  CB  TYR B   1      63.079 146.023   0.386  1.00 21.24 LIG 0.08  C 
BRANCH 32 33
ATOM     33  CG  TYR B   1      64.500 146.419   0.067  1.00 20.81 LIG-0.06  A 
ATOM     34  CD1 TYR B   1      65.389 146.787   1.086  1.00 20.37 LIG 0.01  A 
ATOM     35  CE1 TYR B   1      66.700 147.151   0.794  1.00 19.95 LIG 0.04  A 
ATOM     36  CZ  TYR B   1      67.129 147.149  -0.535  1.00 20.32 LIG 0.07  A 
ATOM     37  CE2 TYR B   1      66.265 146.788  -1.560  1.00 20.63 LIG 0.04  A 
ATOM     38  CD2 TYR B   1      64.960 146.427  -1.257  1.00 20.57 LIG 0.01  A 
BRANCH 36 39
ATOM     39 OH   TYR B   1      68.418 147.499  -0.855  1.00 20.56 LIG-0.36  OA
ATOM     40 HH   TYR B   1      68.780 147.871  -0.194  1.00 20.56 LIG 0.22  HD
ENDBRANCH 36 39
ENDBRANCH 32 33
ENDBRANCH 31 32
BRANCH 31 41
ATOM     41  N   TYR B   1      62.664 148.277  -0.572  1.00 21.11 LIG-0.07  N 
ATOM     42 H2   TYR B   1      62.919 148.167  -1.418  1.00 21.11 LIG 0.28  HD
ATOM     43 H1   TYR B   1      63.375 148.461  -0.069  1.00 21.11 LIG 0.28  HD
ATOM     44 H3   TYR B   1      62.083 148.949  -0.522  1.00 21.11 LIG 0.28  HD
ENDBRANCH 31 41
ENDBRANCH 28 31
ENDBRANCH 1 27
TORSDOF 15
ENDMDL
MODEL 6
USER: ADFR SOLUTION from run 198
USER: SCORE 14.402423 LL:  -2.036 LR: -12.605 RR:   0.000 FEB:  -8.130
USER: RMSD 8.243858
USER: SEED 197
USER: STATUS no improvement in best in 8 clusters for 5 generations
USER: GENES 17
USER: genes 0 Translation |==|  0.55026 0.38922 0.40116
USER: genes 1 Rotation |==|  0.78294 0.55468 0.62599 0.88870
USER: genes 2 Torsion [C]-CA--CB-[CG] |==|  0.62814
USER: genes 3 Torsion [CA]-CB--CG-[CD2] |==|  0.28668
USER: genes 4 Torsion [CE2]-CZ--OH-[HH] |==|  0.93802
USER: genes 5 Torsion [N]-CA--C-[N] |==|  0.20609
USER: genes 6 Torsion [C]-N--CA-[C] |==|  0.53764
USER: genes 7 Torsion [N]-CA--C-[O] |==|  0.72955
USER: genes 8 Torsion [N]-CA--CB-[CG] |==|  0.59221
USER: genes 9 Torsion [CA]-CB--CG-[CD2] |==|  0.91371
USER: genes 10 Torsion [CE2]-CZ--OH-[HH] |==|  0.29335
USER: genes 11 Torsion [CB]-CA--N-[C] |==|  0.77625
USER: genes 12 Torsion [N]-C--CA-[N] |==|  0.16942
USER: genes 13 Torsion [C]-CA--CB-[CG] |==|  0.60931
USER: genes 14 Torsion [CA]-CB--CG-[CD1] |==|  0.70749
USER: genes 15 Torsion [CE1]-CZ--OH-[HH] |==|  0.02022
USER: genes 16 Torsion [C]-CA--N-[H1] |==|  0.50197
ROOT
ATOM      1  CA  TYR B   2      61.564 147.152   0.962  1.00 28.44 LIG 0.18  C 
ENDROOT
BRANCH 1 2
ATOM      2  CB  TYR B   2      62.498 146.036   0.476  1.00 30.17 LIG 0.07  C 
BRANCH 2 3
ATOM      3  CG  TYR B   2      63.915 146.471   0.136  1.00 31.12 LIG-0.06  A 
ATOM      4  CD2 TYR B   2      64.978 146.212   1.013  1.00 31.81 LIG 0.01  A 
ATOM      5  CE2 TYR B   2      66.279 146.603   0.701  1.00 33.15 LIG 0.04  A 
ATOM      6  CZ  TYR B   2      66.529 147.261  -0.497  1.00 33.29 LIG 0.07  A 
ATOM      7  CE1 TYR B   2      65.492 147.528  -1.393  1.00 33.06 LIG 0.04  A 
ATOM      8  CD1 TYR B   2      64.195 147.132  -1.073  1.00 32.67 LIG 0.01  A 
BRANCH 6 9
ATOM      9 OH   TYR B   2      67.810 147.649  -0.798  1.00 34.60 LIG-0.36  OA
ATOM     10 HH   TYR B   2      68.257 147.712  -0.090  1.00 34.60 LIG 0.22  HD
ENDBRANCH 6 9
ENDBRANCH 2 3
ENDBRANCH 1 2
BRANCH 1 11
ATOM     11  C   TYR B   2      60.802 146.700   2.190  1.00 30.52 LIG 0.24  C 
ATOM     12  N   TYR B   3      59.751 147.447   2.516  1.00 32.89 LIG-0.35  N 
ATOM     13 H    TYR B   3      59.529 148.162   2.093  1.00 32.89 LIG 0.16  HD
ATOM     14 O    TYR B   2      61.162 145.703   2.825  1.00 30.24 LIG-0.27  OA
BRANCH 12 15
ATOM     15  CA  TYR B   3      58.870 147.121   3.629  1.00 36.06 LIG 0.17  C 
BRANCH 15 16
ATOM     16  C   TYR B   3      57.581 147.941   3.571  1.00 37.31 LIG 0.22  C 
ATOM     17 O    TYR B   3      57.460 148.971   4.239  1.00 39.71 LIG-0.29  OA
ENDBRANCH 15 16
BRANCH 15 18
ATOM     18  CB  TYR B   3      59.593 147.345   4.961  1.00 37.43 LIG 0.07  C 
BRANCH 18 19
ATOM     19  CG  TYR B   3      59.179 146.380   6.046  1.00 38.24 LIG-0.06  A 
ATOM     20  CD2 TYR B   3      57.879 145.859   6.089  1.00 38.70 LIG 0.01  A 
ATOM     21  CE2 TYR B   3      57.500 144.966   7.086  1.00 39.79 LIG 0.04  A 
ATOM     22  CZ  TYR B   3      58.423 144.589   8.055  1.00 40.15 LIG 0.07  A 
ATOM     23  CE1 TYR B   3      59.720 145.094   8.036  1.00 39.97 LIG 0.04  A 
ATOM     24  CD1 TYR B   3      60.090 145.982   7.036  1.00 39.23 LIG 0.01  A 
BRANCH 22 25
ATOM     25 OH   TYR B   3      58.069 143.710   9.052  1.00 40.04 LIG-0.36  OA
ATOM     26 HH   TYR B   3      58.413 142.959   8.899  1.00 40.04 LIG 0.22  HD
ENDBRANCH 22 25
ENDBRANCH 18 19
ENDBRANCH 15 18
ENDBRANCH 12 15
ENDBRANCH 1 11
BRANCH 1 27
ATOM     27  N   TYR B   2      62.340 148.336   1.292  1.00 25.33 LIG-0.35  N 
ATOM     28  C   TYR B   1      62.990 148.482   2.443  1.00 22.87 LIG 0.25  C 
ATOM     29 O    TYR B   1      63.076 147.592   3.295  1.00 21.86 LIG-0.27  OA
ATOM     30 H    TYR B   2      62.339 148.933   0.673  1.00 25.33 LIG 0.16  HD
BRANCH 28 31
ATOM     31  CA  TYR B   1      63.650 149.841   2.661  1.00 21.88 LIG 0.28  C 
BRANCH 31 32
ATOM     32  CB  TYR B   1      64.431 149.825   3.976  1.00 21.24 LIG 0.08  C 
BRANCH 32 33
ATOM     33  CG  TYR B   1      64.341 151.099   4.780  1.00 20.81 LIG-0.06  A 
ATOM     34  CD1 TYR B   1      65.419 151.992   4.835  1.00 20.37 LIG 0.01  A 
ATOM     35  CE1 TYR B   1      65.337 153.168   5.574  1.00 19.95 LIG 0.04  A 
ATOM     36  CZ  TYR B   1      64.161 153.456   6.269  1.00 20.32 LIG 0.07  A 
ATOM     37  CE2 TYR B   1      63.080 152.585   6.228  1.00 20.63 LIG 0.04  A 
ATOM     38  CD2 TYR B   1      63.174 151.415   5.488  1.00 20.57 LIG 0.01  A 
BRANCH 36 39
ATOM     39 OH   TYR B   1      64.047 154.611   7.004  1.00 20.56 LIG-0.36  OA
ATOM     40 HH   TYR B   1      64.718 155.098   6.868  1.00 20.56 LIG 0.22  HD
ENDBRANCH 36 39
ENDBRANCH 32 33
ENDBRANCH 31 32
BRANCH 31 41
ATOM     41  N   TYR B   1      62.652 150.955   2.663  1.00 21.11 LIG-0.07  N 
ATOM     42 H2   TYR B   1      62.220 150.968   1.885  1.00 21.11 LIG 0.28  HD
ATOM     43 H1   TYR B   1      63.073 151.730   2.782  1.00 21.11 LIG 0.28  HD
ATOM     44 H3   TYR B   1      62.068 150.829   3.324  1.00 21.11 LIG 0.28  HD
ENDBRANCH 31 41
ENDBRANCH 28 31
ENDBRANCH 1 27
TORSDOF 15
ENDMDL
MODEL 7
USER: ADFR SOLUTION from run 182
USER: SCORE 14.907826 LL:  -2.615 LR: -12.536 RR:   0.000 FEB:  -8.061
USER: RMSD 6.313998
USER: SEED 181
USER: STATUS no improvement in best in 11 clusters for 5 generations
USER: GENES 17
USER: genes 0 Translation |==|  0.49078 0.47083 0.49370
USER: genes 1 Rotation |==|  0.68253 0.37671 0.74235 0.87782
USER: genes 2 Torsion [C]-CA--CB-[CG] |==|  0.37054
USER: genes 3 Torsion [CA]-CB--CG-[CD2] |==|  0.41544
USER: genes 4 Torsion [CE2]-CZ--OH-[HH] |==|  0.93235
USER: genes 5 Torsion [N]-CA--C-[N] |==|  0.04085
USER: genes 6 Torsion [C]-N--CA-[C] |==|  0.80769
USER: genes 7 Torsion [N]-CA--C-[O] |==|  0.89921
USER: genes 8 Torsion [N]-CA--CB-[CG] |==|  0.22680
USER: genes 9 Torsion [CA]-CB--CG-[CD2] |==|  0.24700
USER: genes 10 Torsion [CE2]-CZ--OH-[HH] |==|  0.99570
USER: genes 11 Torsion [CB]-CA--N-[C] |==|  0.17852
USER: genes 12 Torsion [N]-C--CA-[N] |==|  0.50049
USER: genes 13 Torsion [C]-CA--CB-[CG] |==|  0.84548
USER: genes 14 Torsion [CA]-CB--CG-[CD1] |==|  0.94995
USER: genes 15 Torsion [CE1]-CZ--OH-[HH] |==|  0.63511
USER: genes 16 Torsion [C]-CA--N-[H1] |==|  0.20834
ROOT
ATOM      1  CA  TYR B   2      60.092 148.804   2.420  1.00 28.44 LIG 0.18  C 
ENDROOT
BRANCH 1 2
ATOM      2  CB  TYR B   2      61.015 147.705   2.959  1.00 30.17 LIG 0.07  C 
BRANCH 2 3
ATOM      3  CG  TYR B   2      62.205 147.360   2.078  1.00 31.12 LIG-0.06  A 
ATOM      4  CD2 TYR B   2      63.409 146.906   2.637  1.00 31.81 LIG 0.01  A 
ATOM      5  CE2 TYR B   2      64.499 146.582   1.832  1.00 33.15 LIG 0.04  A 
ATOM      6  CZ  TYR B   2      64.395 146.710   0.452  1.00 33.29 LIG 0.07  A 
ATOM      7  CE1 TYR B   2      63.208 147.154  -0.135  1.00 33.06 LIG 0.04  A 
ATOM      8  CD1 TYR B   2      62.123 147.474   0.679  1.00 32.67 LIG 0.01  A 
BRANCH 6 9
ATOM      9 OH   TYR B   2      65.472 146.395  -0.337  1.00 34.60 LIG-0.36  OA
ATOM     10 HH   TYR B   2      66.178 146.470   0.111  1.00 34.60 LIG 0.22  HD
ENDBRANCH 6 9
ENDBRANCH 2 3
ENDBRANCH 1 2
BRANCH 1 11
ATOM     11  C   TYR B   2      58.644 148.379   2.541  1.00 30.52 LIG 0.24  C 
ATOM     12  N   TYR B   3      57.814 149.306   3.008  1.00 32.89 LIG-0.35  N 
ATOM     13 H    TYR B   3      58.070 150.086   3.264  1.00 32.89 LIG 0.16  HD
ATOM     14 O    TYR B   2      58.292 147.237   2.223  1.00 30.24 LIG-0.27  OA
BRANCH 12 15
ATOM     15  CA  TYR B   3      56.378 149.089   3.130  1.00 36.06 LIG 0.17  C 
BRANCH 15 16
ATOM     16  C   TYR B   3      55.714 149.004   1.756  1.00 37.31 LIG 0.22  C 
ATOM     17 O    TYR B   3      56.108 149.710   0.823  1.00 39.71 LIG-0.29  OA
ENDBRANCH 15 16
BRANCH 15 18
ATOM     18  CB  TYR B   3      55.743 150.200   3.970  1.00 37.43 LIG 0.07  C 
BRANCH 18 19
ATOM     19  CG  TYR B   3      55.464 151.464   3.193  1.00 38.24 LIG-0.06  A 
ATOM     20  CD2 TYR B   3      54.246 151.644   2.524  1.00 38.70 LIG 0.01  A 
ATOM     21  CE2 TYR B   3      53.987 152.812   1.812  1.00 39.79 LIG 0.04  A 
ATOM     22  CZ  TYR B   3      54.953 153.811   1.762  1.00 40.15 LIG 0.07  A 
ATOM     23  CE1 TYR B   3      56.172 153.656   2.417  1.00 39.97 LIG 0.04  A 
ATOM     24  CD1 TYR B   3      56.419 152.490   3.126  1.00 39.23 LIG 0.01  A 
BRANCH 22 25
ATOM     25 OH   TYR B   3      54.719 154.972   1.062  1.00 40.04 LIG-0.36  OA
ATOM     26 HH   TYR B   3      53.964 154.933   0.698  1.00 40.04 LIG 0.22  HD
ENDBRANCH 22 25
ENDBRANCH 18 19
ENDBRANCH 15 18
ENDBRANCH 12 15
ENDBRANCH 1 11
BRANCH 1 27
ATOM     27  N   TYR B   2      60.292 150.031   3.173  1.00 25.33 LIG-0.35  N 
ATOM     28  C   TYR B   1      61.439 150.705   3.173  1.00 22.87 LIG 0.25  C 
ATOM     29 O    TYR B   1      62.404 150.408   2.463  1.00 21.86 LIG-0.27  OA
ATOM     30 H    TYR B   2      59.600 150.281   3.618  1.00 25.33 LIG 0.16  HD
BRANCH 28 31
ATOM     31  CA  TYR B   1      61.501 151.903   4.118  1.00 21.88 LIG 0.28  C 
BRANCH 31 32
ATOM     32  CB  TYR B   1      60.366 152.874   3.785  1.00 21.24 LIG 0.08  C 
BRANCH 32 33
ATOM     33  CG  TYR B   1      60.339 153.344   2.351  1.00 20.81 LIG-0.06  A 
ATOM     34  CD1 TYR B   1      61.470 153.219   1.532  1.00 20.37 LIG 0.01  A 
ATOM     35  CE1 TYR B   1      61.446 153.650   0.210  1.00 19.95 LIG 0.04  A 
ATOM     36  CZ  TYR B   1      60.276 154.215  -0.303  1.00 20.32 LIG 0.07  A 
ATOM     37  CE2 TYR B   1      59.145 154.349   0.490  1.00 20.63 LIG 0.04  A 
ATOM     38  CD2 TYR B   1      59.180 153.916   1.808  1.00 20.57 LIG 0.01  A 
BRANCH 36 39
ATOM     39 OH   TYR B   1      60.220 154.646  -1.606  1.00 20.56 LIG-0.36  OA
ATOM     40 HH   TYR B   1      59.898 155.421  -1.631  1.00 20.56 LIG 0.22  HD
ENDBRANCH 36 39
ENDBRANCH 32 33
ENDBRANCH 31 32
BRANCH 31 41
ATOM     41  N   TYR B   1      62.821 152.602   4.050  1.00 21.11 LIG-0.07  N 
ATOM     42 H2   TYR B   1      62.905 153.146   4.751  1.00 21.11 LIG 0.28  HD
ATOM     43 H1   TYR B   1      62.867 153.077   3.299  1.00 21.11 LIG 0.28  HD
ATOM     44 H3   TYR B   1      63.476 152.001   4.062  1.00 21.11 LIG 0.28  HD
ENDBRANCH 31 41
ENDBRANCH 28 31
ENDBRANCH 1 27
TORSDOF 15
ENDMDL
MODEL 8
USER: ADFR SOLUTION from run 182
USER: SCORE 14.001557 LL:  -2.104 LR: -12.472 RR:   0.000 FEB:  -7.997
USER: RMSD 6.759041
USER: SEED 181
USER: STATUS no improvement in best in 11 clusters for 5 generations
USER: GENES 17
USER: genes 0 Translation |==|  0.51931 0.45765 0.49188
USER: genes 1 Rotation |==|  0.66557 0.37043 0.75388 0.87595
USER: genes 2 Torsion [C]-CA--CB-[CG] |==|  0.43308
USER: genes 3 Torsion [CA]-CB--CG-[CD2] |==|  0.27581
USER: genes 4 Torsion [CE2]-CZ--OH-[HH] |==|  0.88317
USER: genes 5 Torsion [N]-CA--C-[N] |==|  0.96841
USER: genes 6 Torsion [C]-N--CA-[C] |==|  0.18620
USER: genes 7 Torsion [N]-CA--C-[O] |==|  0.01673
USER: genes 8 Torsion [N]-CA--CB-[CG] |==|  0.57440
USER: genes 9 Torsion [CA]-CB--CG-[CD2] |==|  0.14330
USER: genes 10 Torsion [CE2]-CZ--OH-[HH] |==|  0.01383
USER: genes 11 Torsion [CB]-CA--N-[C] |==|  0.22327
USER: genes 12 Torsion [N]-C--CA-[N] |==|  0.49170
USER: genes 13 Torsion [C]-CA--CB-[CG] |==|  0.82854
USER: genes 14 Torsion [CA]-CB--CG-[CD1] |==|  0.93324
USER: genes 15 Torsion [CE1]-CZ--OH-[HH] |==|  0.86703
USER: genes 16 Torsion [C]-CA--N-[H1] |==|  0.95239
ROOT
ATOM      1  CA  TYR B   2      60.798 148.537   2.391  1.00 28.44 LIG 0.18  C 
ENDROOT
BRANCH 1 2
ATOM      2  CB  TYR B   2      61.693 147.478   3.046  1.00 30.17 LIG 0.07  C 
BRANCH 2 3
ATOM      3  CG  TYR B   2      63.146 147.481   2.598  1.00 31.12 LIG-0.06  A 
ATOM      4  CD2 TYR B   2      64.139 148.097   3.373  1.00 31.81 LIG 0.01  A 
ATOM      5  CE2 TYR B   2      65.472 148.095   2.969  1.00 33.15 LIG 0.04  A 
ATOM      6  CZ  TYR B   2      65.827 147.474   1.777  1.00 33.29 LIG 0.07  A 
ATOM      7  CE1 TYR B   2      64.862 146.848   0.986  1.00 33.06 LIG 0.04  A 
ATOM      8  CD1 TYR B   2      63.531 146.854   1.400  1.00 32.67 LIG 0.01  A 
BRANCH 6 9
ATOM      9 OH   TYR B   2      67.139 147.480   1.379  1.00 34.60 LIG-0.36  OA
ATOM     10 HH   TYR B   2      67.471 148.239   1.520  1.00 34.60 LIG 0.22  HD
ENDBRANCH 6 9
ENDBRANCH 2 3
ENDBRANCH 1 2
BRANCH 1 11
ATOM     11  C   TYR B   2      59.350 148.097   2.431  1.00 30.52 LIG 0.24  C 
ATOM     12  N   TYR B   3      58.569 148.779   3.263  1.00 32.89 LIG-0.35  N 
ATOM     13 H    TYR B   3      58.857 149.404   3.779  1.00 32.89 LIG 0.16  HD
ATOM     14 O    TYR B   2      58.955 147.160   1.728  1.00 30.24 LIG-0.27  OA
BRANCH 12 15
ATOM     15  CA  TYR B   3      57.138 148.531   3.381  1.00 36.06 LIG 0.17  C 
BRANCH 15 16
ATOM     16  C   TYR B   3      56.865 147.153   3.982  1.00 37.31 LIG 0.22  C 
ATOM     17 O    TYR B   3      57.792 146.455   4.401  1.00 39.71 LIG-0.29  OA
ENDBRANCH 15 16
BRANCH 15 18
ATOM     18  CB  TYR B   3      56.462 148.669   2.013  1.00 37.43 LIG 0.07  C 
BRANCH 18 19
ATOM     19  CG  TYR B   3      55.007 149.065   2.093  1.00 38.24 LIG-0.06  A 
ATOM     20  CD2 TYR B   3      54.602 150.174   2.846  1.00 38.70 LIG 0.01  A 
ATOM     21  CE2 TYR B   3      53.262 150.541   2.914  1.00 39.79 LIG 0.04  A 
ATOM     22  CZ  TYR B   3      52.311 149.793   2.228  1.00 40.15 LIG 0.07  A 
ATOM     23  CE1 TYR B   3      52.688 148.685   1.474  1.00 39.97 LIG 0.04  A 
ATOM     24  CD1 TYR B   3      54.027 148.329   1.409  1.00 39.23 LIG 0.01  A 
BRANCH 22 25
ATOM     25 OH   TYR B   3      50.980 150.136   2.284  1.00 40.04 LIG-0.36  OA
ATOM     26 HH   TYR B   3      50.894 150.854   2.711  1.00 40.04 LIG 0.22  HD
ENDBRANCH 22 25
ENDBRANCH 18 19
ENDBRANCH 15 18
ENDBRANCH 12 15
ENDBRANCH 1 11
BRANCH 1 27
ATOM     27  N   TYR B   2      60.931 149.801   3.097  1.00 25.33 LIG-0.35  N 
ATOM     28  C   TYR B   1      61.945 150.640   2.900  1.00 22.87 LIG 0.25  C 
ATOM     29 O    TYR B   1      62.811 150.473   2.037  1.00 21.86 LIG-0.27  OA
ATOM     30 H    TYR B   2      60.294 149.956   3.652  1.00 25.33 LIG 0.16  HD
BRANCH 28 31
ATOM     31  CA  TYR B   1      61.979 151.860   3.818  1.00 21.88 LIG 0.28  C 
BRANCH 31 32
ATOM     32  CB  TYR B   1      60.703 152.682   3.623  1.00 21.24 LIG 0.08  C 
BRANCH 32 33
ATOM     33  CG  TYR B   1      60.514 153.231   2.230  1.00 20.81 LIG-0.06  A 
ATOM     34  CD1 TYR B   1      61.612 153.434   1.382  1.00 20.37 LIG 0.01  A 
ATOM     35  CE1 TYR B   1      61.440 153.939   0.098  1.00 19.95 LIG 0.04  A 
ATOM     36  CZ  TYR B   1      60.152 154.248  -0.347  1.00 20.32 LIG 0.07  A 
ATOM     37  CE2 TYR B   1      59.051 154.055   0.476  1.00 20.63 LIG 0.04  A 
ATOM     38  CD2 TYR B   1      59.235 153.551   1.756  1.00 20.57 LIG 0.01  A 
BRANCH 36 39
ATOM     39 OH   TYR B   1      59.949 154.744  -1.612  1.00 20.56 LIG-0.36  OA
ATOM     40 HH   TYR B   1      60.490 155.369  -1.758  1.00 20.56 LIG 0.22  HD
ENDBRANCH 36 39
ENDBRANCH 32 33
ENDBRANCH 31 32
BRANCH 31 41
ATOM     41  N   TYR B   1      63.186 152.708   3.577  1.00 21.11 LIG-0.07  N 
ATOM     42 H2   TYR B   1      62.955 153.427   3.104  1.00 21.11 LIG 0.28  HD
ATOM     43 H1   TYR B   1      63.794 152.239   3.125  1.00 21.11 LIG 0.28  HD
ATOM     44 H3   TYR B   1      63.529 152.965   4.357  1.00 21.11 LIG 0.28  HD
ENDBRANCH 31 41
ENDBRANCH 28 31
ENDBRANCH 1 27
TORSDOF 15
ENDMDL
MODEL 9
USER: ADFR SOLUTION from run 107
USER: SCORE 13.695351 LL:  -2.324 LR: -12.376 RR:   0.000 FEB:  -7.901
USER: RMSD 4.155952
USER: SEED 106
USER: STATUS no improvement in best in 13 clusters for 5 generations
USER: GENES 17
USER: genes 0 Translation |==|  0.47295 0.46030 0.53619
USER: genes 1 Rotation |==|  0.52949 0.45098 0.56834 0.99199
USER: genes 2 Torsion [C]-CA--CB-[CG] |==|  0.20779
USER: genes 3 Torsion [CA]-CB--CG-[CD2] |==|  0.18376
USER: genes 4 Torsion [CE2]-CZ--OH-[HH] |==|  0.97618
USER: genes 5 Torsion [N]-CA--C-[N] |==|  0.07654
USER: genes 6 Torsion [C]-N--CA-[C] |==|  0.75996
USER: genes 7 Torsion [N]-CA--C-[O] |==|  0.27819
USER: genes 8 Torsion [N]-CA--CB-[CG] |==|  0.16429
USER: genes 9 Torsion [CA]-CB--CG-[CD2] |==|  0.76524
USER: genes 10 Torsion [CE2]-CZ--OH-[HH] |==|  0.64956
USER: genes 11 Torsion [CB]-CA--N-[C] |==|  0.81551
USER: genes 12 Torsion [N]-C--CA-[N] |==|  0.38896
USER: genes 13 Torsion [C]-CA--CB-[CG] |==|  0.22535
USER: genes 14 Torsion [CA]-CB--CG-[CD1] |==|  0.96250
USER: genes 15 Torsion [CE1]-CZ--OH-[HH] |==|  0.97846
USER: genes 16 Torsion [C]-CA--N-[H1] |==|  0.52093
ROOT
ATOM      1  CA  TYR B   2      59.651 148.591   3.089  1.00 28.44 LIG 0.18  C 
ENDROOT
BRANCH 1 2
ATOM      2  CB  TYR B   2      59.865 147.543   4.188  1.00 30.17 LIG 0.07  C 
BRANCH 2 3
ATOM      3  CG  TYR B   2      58.819 146.442   4.254  1.00 31.12 LIG-0.06  A 
ATOM      4  CD2 TYR B   2      58.683 145.512   3.214  1.00 31.81 LIG 0.01  A 
ATOM      5  CE2 TYR B   2      57.731 144.497   3.274  1.00 33.15 LIG 0.04  A 
ATOM      6  CZ  TYR B   2      56.899 144.403   4.383  1.00 33.29 LIG 0.07  A 
ATOM      7  CE1 TYR B   2      57.012 145.311   5.438  1.00 33.06 LIG 0.04  A 
ATOM      8  CD1 TYR B   2      57.969 146.321   5.368  1.00 32.67 LIG 0.01  A 
BRANCH 6 9
ATOM      9 OH   TYR B   2      55.958 143.406   4.437  1.00 34.60 LIG-0.36  OA
ATOM     10 HH   TYR B   2      55.923 143.014   3.695  1.00 34.60 LIG 0.22  HD
ENDBRANCH 6 9
ENDBRANCH 2 3
ENDBRANCH 1 2
BRANCH 1 11
ATOM     11  C   TYR B   2      58.526 149.530   3.472  1.00 30.52 LIG 0.24  C 
ATOM     12  N   TYR B   3      58.646 150.776   3.024  1.00 32.89 LIG-0.35  N 
ATOM     13 H    TYR B   3      59.326 151.056   2.579  1.00 32.89 LIG 0.16  HD
ATOM     14 O    TYR B   2      57.579 149.134   4.160  1.00 30.24 LIG-0.27  OA
BRANCH 12 15
ATOM     15  CA  TYR B   3      57.627 151.793   3.245  1.00 36.06 LIG 0.17  C 
BRANCH 15 16
ATOM     16  C   TYR B   3      56.553 151.744   2.160  1.00 37.31 LIG 0.22  C 
ATOM     17 O    TYR B   3      55.471 151.189   2.371  1.00 39.71 LIG-0.29  OA
ENDBRANCH 15 16
BRANCH 15 18
ATOM     18  CB  TYR B   3      58.270 153.182   3.308  1.00 37.43 LIG 0.07  C 
BRANCH 18 19
ATOM     19  CG  TYR B   3      59.024 153.559   2.056  1.00 38.24 LIG-0.06  A 
ATOM     20  CD2 TYR B   3      60.353 153.156   1.867  1.00 38.70 LIG 0.01  A 
ATOM     21  CE2 TYR B   3      61.046 153.499   0.710  1.00 39.79 LIG 0.04  A 
ATOM     22  CZ  TYR B   3      60.411 154.255  -0.270  1.00 40.15 LIG 0.07  A 
ATOM     23  CE1 TYR B   3      59.092 154.669  -0.105  1.00 39.97 LIG 0.04  A 
ATOM     24  CD1 TYR B   3      58.409 154.320   1.051  1.00 39.23 LIG 0.01  A 
BRANCH 22 25
ATOM     25 OH   TYR B   3      61.078 154.608  -1.420  1.00 40.04 LIG-0.36  OA
ATOM     26 HH   TYR B   3      61.036 155.440  -1.524  1.00 40.04 LIG 0.22  HD
ENDBRANCH 22 25
ENDBRANCH 18 19
ENDBRANCH 15 18
ENDBRANCH 12 15
ENDBRANCH 1 11
BRANCH 1 27
ATOM     27  N   TYR B   2      60.869 149.360   2.896  1.00 25.33 LIG-0.35  N 
ATOM     28  C   TYR B   1      61.366 150.178   3.820  1.00 22.87 LIG 0.25  C 
ATOM     29 O    TYR B   1      60.898 150.287   4.957  1.00 21.86 LIG-0.27  OA
ATOM     30 H    TYR B   2      61.238 149.237   2.129  1.00 25.33 LIG 0.16  HD
BRANCH 28 31
ATOM     31  CA  TYR B   1      62.585 150.992   3.394  1.00 21.88 LIG 0.28  C 
BRANCH 31 32
ATOM     32  CB  TYR B   1      63.859 150.295   3.877  1.00 21.24 LIG 0.08  C 
BRANCH 32 33
ATOM     33  CG  TYR B   1      64.326 149.158   3.003  1.00 20.81 LIG-0.06  A 
ATOM     34  CD1 TYR B   1      63.488 148.617   2.018  1.00 20.37 LIG 0.01  A 
ATOM     35  CE1 TYR B   1      63.917 147.570   1.210  1.00 19.95 LIG 0.04  A 
ATOM     36  CZ  TYR B   1      65.202 147.053   1.388  1.00 20.32 LIG 0.07  A 
ATOM     37  CE2 TYR B   1      66.049 147.573   2.357  1.00 20.63 LIG 0.04  A 
ATOM     38  CD2 TYR B   1      65.610 148.618   3.158  1.00 20.57 LIG 0.01  A 
BRANCH 36 39
ATOM     39 OH   TYR B   1      65.657 146.022   0.603  1.00 20.56 LIG-0.36  OA
ATOM     40 HH   TYR B   1      65.027 145.729   0.131  1.00 20.56 LIG 0.22  HD
ENDBRANCH 36 39
ENDBRANCH 32 33
ENDBRANCH 31 32
BRANCH 31 41
ATOM     41  N   TYR B   1      62.531 152.394   3.909  1.00 21.11 LIG-0.07  N 
ATOM     42 H2   TYR B   1      61.753 152.763   3.686  1.00 21.11 LIG 0.28  HD
ATOM     43 H1   TYR B   1      63.197 152.867   3.554  1.00 21.11 LIG 0.28  HD
ATOM     44 H3   TYR B   1      62.612 152.388   4.796  1.00 21.11 LIG 0.28  HD
ENDBRANCH 31 41
ENDBRANCH 28 31
ENDBRANCH 1 27
TORSDOF 15
ENDMDL
MODEL 10
USER: ADFR SOLUTION from run 198
USER: SCORE 14.405615 LL:  -2.912 LR: -12.291 RR:   0.000 FEB:  -7.817
USER: RMSD 7.981073
USER: SEED 197
USER: STATUS no improvement in best in 8 clusters for 5 generations
USER: GENES 17
USER: genes 0 Translation |==|  0.55188 0.37713 0.44434
USER: genes 1 Rotation |==|  0.69946 0.46759 0.74427 0.88665
USER: genes 2 Torsion [C]-CA--CB-[CG] |==|  0.48689
USER: genes 3 Torsion [CA]-CB--CG-[CD2] |==|  0.33072
USER: genes 4 Torsion [CE2]-CZ--OH-[HH] |==|  0.00153
USER: genes 5 Torsion [N]-CA--C-[N] |==|  0.97658
USER: genes 6 Torsion [C]-N--CA-[C] |==|  0.78293
USER: genes 7 Torsion [N]-CA--C-[O] |==|  0.93809
USER: genes 8 Torsion [N]-CA--CB-[CG] |==|  0.67683
USER: genes 9 Torsion [CA]-CB--CG-[CD2] |==|  0.76044
USER: genes 10 Torsion [CE2]-CZ--OH-[HH] |==|  0.53430
USER: genes 11 Torsion [CB]-CA--N-[C] |==|  0.26503
USER: genes 12 Torsion [N]-C--CA-[N] |==|  0.85760
USER: genes 13 Torsion [C]-CA--CB-[CG] |==|  0.73854
USER: genes 14 Torsion [CA]-CB--CG-[CD1] |==|  0.24954
USER: genes 15 Torsion [CE1]-CZ--OH-[HH] |==|  0.01239
USER: genes 16 Torsion [C]-CA--N-[H1] |==|  0.51832
ROOT
ATOM      1  CA  TYR B   2      61.604 146.907   1.642  1.00 28.44 LIG 0.18  C 
ENDROOT
BRANCH 1 2
ATOM      2  CB  TYR B   2      62.808 146.020   1.984  1.00 30.17 LIG 0.07  C 
BRANCH 2 3
ATOM      3  CG  TYR B   2      64.119 146.415   1.324  1.00 31.12 LIG-0.06  A 
ATOM      4  CD2 TYR B   2      65.234 146.776   2.094  1.00 31.81 LIG 0.01  A 
ATOM      5  CE2 TYR B   2      66.440 147.131   1.494  1.00 33.15 LIG 0.04  A 
ATOM      6  CZ  TYR B   2      66.542 147.129   0.108  1.00 33.29 LIG 0.07  A 
ATOM      7  CE1 TYR B   2      65.452 146.770  -0.687  1.00 33.06 LIG 0.04  A 
ATOM      8  CD1 TYR B   2      64.251 146.414  -0.076  1.00 32.67 LIG 0.01  A 
BRANCH 6 9
ATOM      9 OH   TYR B   2      67.729 147.486  -0.480  1.00 34.60 LIG-0.36  OA
ATOM     10 HH   TYR B   2      68.293 147.668   0.115  1.00 34.60 LIG 0.22  HD
ENDBRANCH 6 9
ENDBRANCH 2 3
ENDBRANCH 1 2
BRANCH 1 11
ATOM     11  C   TYR B   2      60.344 146.344   2.265  1.00 30.52 LIG 0.24  C 
ATOM     12  N   TYR B   3      59.812 147.077   3.238  1.00 32.89 LIG-0.35  N 
ATOM     13 H    TYR B   3      60.167 147.804   3.532  1.00 32.89 LIG 0.16  HD
ATOM     14 O    TYR B   2      59.873 145.270   1.876  1.00 30.24 LIG-0.27  OA
BRANCH 12 15
ATOM     15  CA  TYR B   3      58.567 146.718   3.904  1.00 36.06 LIG 0.17  C 
BRANCH 15 16
ATOM     16  C   TYR B   3      57.357 147.076   3.043  1.00 37.31 LIG 0.22  C 
ATOM     17 O    TYR B   3      57.445 147.937   2.163  1.00 39.71 LIG-0.29  OA
ENDBRANCH 15 16
BRANCH 15 18
ATOM     18  CB  TYR B   3      58.481 147.403   5.272  1.00 37.43 LIG 0.07  C 
BRANCH 18 19
ATOM     19  CG  TYR B   3      58.462 146.439   6.433  1.00 38.24 LIG-0.06  A 
ATOM     20  CD2 TYR B   3      57.260 145.875   6.883  1.00 38.70 LIG 0.01  A 
ATOM     21  CE2 TYR B   3      57.244 144.983   7.950  1.00 39.79 LIG 0.04  A 
ATOM     22  CZ  TYR B   3      58.438 144.648   8.580  1.00 40.15 LIG 0.07  A 
ATOM     23  CE1 TYR B   3      59.645 145.195   8.154  1.00 39.97 LIG 0.04  A 
ATOM     24  CD1 TYR B   3      59.651 146.082   7.087  1.00 39.23 LIG 0.01  A 
BRANCH 22 25
ATOM     25 OH   TYR B   3      58.445 143.770   9.639  1.00 40.04 LIG-0.36  OA
ATOM     26 HH   TYR B   3      59.194 143.795  10.019  1.00 40.04 LIG 0.22  HD
ENDBRANCH 22 25
ENDBRANCH 18 19
ENDBRANCH 15 18
ENDBRANCH 12 15
ENDBRANCH 1 11
BRANCH 1 27
ATOM     27  N   TYR B   2      61.824 148.253   2.146  1.00 25.33 LIG-0.35  N 
ATOM     28  C   TYR B   1      62.320 149.236   1.399  1.00 22.87 LIG 0.25  C 
ATOM     29 O    TYR B   1      62.548 149.126   0.191  1.00 21.86 LIG-0.27  OA
ATOM     30 H    TYR B   2      61.604 148.354   2.971  1.00 25.33 LIG 0.16  HD
BRANCH 28 31
ATOM     31  CA  TYR B   1      62.593 150.547   2.132  1.00 21.88 LIG 0.28  C 
BRANCH 31 32
ATOM     32  CB  TYR B   1      63.804 150.376   3.052  1.00 21.24 LIG 0.08  C 
BRANCH 32 33
ATOM     33  CG  TYR B   1      63.466 150.004   4.475  1.00 20.81 LIG-0.06  A 
ATOM     34  CD1 TYR B   1      63.358 148.661   4.861  1.00 20.37 LIG 0.01  A 
ATOM     35  CE1 TYR B   1      63.048 148.316   6.172  1.00 19.95 LIG 0.04  A 
ATOM     36  CZ  TYR B   1      62.842 149.328   7.113  1.00 20.32 LIG 0.07  A 
ATOM     37  CE2 TYR B   1      62.945 150.665   6.753  1.00 20.63 LIG 0.04  A 
ATOM     38  CD2 TYR B   1      63.254 150.996   5.441  1.00 20.57 LIG 0.01  A 
BRANCH 36 39
ATOM     39 OH   TYR B   1      62.540 149.020   8.417  1.00 20.56 LIG-0.36  OA
ATOM     40 HH   TYR B   1      62.570 148.187   8.523  1.00 20.56 LIG 0.22  HD
ENDBRANCH 36 39
ENDBRANCH 32 33
ENDBRANCH 31 32
BRANCH 31 41
ATOM     41  N   TYR B   1      61.406 151.010   2.914  1.00 21.11 LIG-0.07  N 
ATOM     42 H2   TYR B   1      60.694 151.046   2.381  1.00 21.11 LIG 0.28  HD
ATOM     43 H1   TYR B   1      61.568 151.819   3.248  1.00 21.11 LIG 0.28  HD
ATOM     44 H3   TYR B   1      61.249 150.440   3.580  1.00 21.11 LIG 0.28  HD
ENDBRANCH 31 41
ENDBRANCH 28 31
ENDBRANCH 1 27
TORSDOF 15
ENDMDL
MODEL 11
USER: ADFR SOLUTION from run 63
USER: SCORE 13.059129 LL:  -2.040 LR: -12.169 RR:   0.000 FEB:  -7.695
USER: RMSD 3.136960
USER: SEED 62
USER: STATUS no improvement in best in 3 clusters for 5 generations
USER: GENES 17
USER: genes 0 Translation |==|  0.43420 0.39004 0.47720
USER: genes 1 Rotation |==|  0.43592 0.50818 0.52108 0.99536
USER: genes 2 Torsion [C]-CA--CB-[CG] |==|  0.73082
USER: genes 3 Torsion [CA]-CB--CG-[CD2] |==|  0.31282
USER: genes 4 Torsion [CE2]-CZ--OH-[HH] |==|  0.05082
USER: genes 5 Torsion [N]-CA--C-[N] |==|  0.39913
USER: genes 6 Torsion [C]-N--CA-[C] |==|  0.49145
USER: genes 7 Torsion [N]-CA--C-[O] |==|  0.88251
USER: genes 8 Torsion [N]-CA--CB-[CG] |==|  0.54216
USER: genes 9 Torsion [CA]-CB--CG-[CD2] |==|  0.83736
USER: genes 10 Torsion [CE2]-CZ--OH-[HH] |==|  0.78794
USER: genes 11 Torsion [CB]-CA--N-[C] |==|  0.28331
USER: genes 12 Torsion [N]-C--CA-[N] |==|  0.95960
USER: genes 13 Torsion [C]-CA--CB-[CG] |==|  0.50491
USER: genes 14 Torsion [CA]-CB--CG-[CD1] |==|  0.35698
USER: genes 15 Torsion [CE1]-CZ--OH-[HH] |==|  0.92749
USER: genes 16 Torsion [C]-CA--N-[H1] |==|  0.89936
ROOT
ATOM      1  CA  TYR B   2      58.691 147.168   2.160  1.00 28.44 LIG 0.18  C 
ENDROOT
BRANCH 1 2
ATOM      2  CB  TYR B   2      58.963 146.554   3.539  1.00 30.17 LIG 0.07  C 
BRANCH 2 3
ATOM      3  CG  TYR B   2      60.301 146.915   4.164  1.00 31.12 LIG-0.06  A 
ATOM      4  CD2 TYR B   2      60.367 147.713   5.315  1.00 31.81 LIG 0.01  A 
ATOM      5  CE2 TYR B   2      61.590 148.040   5.895  1.00 33.15 LIG 0.04  A 
ATOM      6  CZ  TYR B   2      62.767 147.570   5.325  1.00 33.29 LIG 0.07  A 
ATOM      7  CE1 TYR B   2      62.734 146.770   4.181  1.00 33.06 LIG 0.04  A 
ATOM      8  CD1 TYR B   2      61.505 146.447   3.610  1.00 32.67 LIG 0.01  A 
BRANCH 6 9
ATOM      9 OH   TYR B   2      63.971 147.899   5.894  1.00 34.60 LIG-0.36  OA
ATOM     10 HH   TYR B   2      63.845 148.157   6.684  1.00 34.60 LIG 0.22  HD
ENDBRANCH 6 9
ENDBRANCH 2 3
ENDBRANCH 1 2
BRANCH 1 11
ATOM     11  C   TYR B   2      57.855 148.423   2.300  1.00 30.52 LIG 0.24  C 
ATOM     12  N   TYR B   3      56.546 148.256   2.143  1.00 32.89 LIG-0.35  N 
ATOM     13 H    TYR B   3      56.185 147.503   1.937  1.00 32.89 LIG 0.16  HD
ATOM     14 O    TYR B   2      58.387 149.512   2.540  1.00 30.24 LIG-0.27  OA
BRANCH 12 15
ATOM     15  CA  TYR B   3      55.589 149.343   2.306  1.00 36.06 LIG 0.17  C 
BRANCH 15 16
ATOM     16  C   TYR B   3      54.167 148.878   1.990  1.00 37.31 LIG 0.22  C 
ATOM     17 O    TYR B   3      53.945 148.150   1.019  1.00 39.71 LIG-0.29  OA
ENDBRANCH 15 16
BRANCH 15 18
ATOM     18  CB  TYR B   3      55.980 150.530   1.420  1.00 37.43 LIG 0.07  C 
BRANCH 18 19
ATOM     19  CG  TYR B   3      55.275 151.815   1.782  1.00 38.24 LIG-0.06  A 
ATOM     20  CD2 TYR B   3      53.876 151.898   1.769  1.00 38.70 LIG 0.01  A 
ATOM     21  CE2 TYR B   3      53.228 153.082   2.109  1.00 39.79 LIG 0.04  A 
ATOM     22  CZ  TYR B   3      53.979 154.197   2.462  1.00 40.15 LIG 0.07  A 
ATOM     23  CE1 TYR B   3      55.370 154.141   2.481  1.00 39.97 LIG 0.04  A 
ATOM     24  CD1 TYR B   3      56.007 152.956   2.144  1.00 39.23 LIG 0.01  A 
BRANCH 22 25
ATOM     25 OH   TYR B   3      53.358 155.378   2.799  1.00 40.04 LIG-0.36  OA
ATOM     26 HH   TYR B   3      53.085 155.759   2.102  1.00 40.04 LIG 0.22  HD
ENDBRANCH 22 25
ENDBRANCH 18 19
ENDBRANCH 15 18
ENDBRANCH 12 15
ENDBRANCH 1 11
BRANCH 1 27
ATOM     27  N   TYR B   2      59.949 147.503   1.512  1.00 25.33 LIG-0.35  N 
ATOM     28  C   TYR B   1      60.495 146.758   0.556  1.00 22.87 LIG 0.25  C 
ATOM     29 O    TYR B   1      59.943 145.770   0.062  1.00 21.86 LIG-0.27  OA
ATOM     30 H    TYR B   2      60.306 148.229   1.806  1.00 25.33 LIG 0.16  HD
BRANCH 28 31
ATOM     31  CA  TYR B   1      61.876 147.203   0.080  1.00 21.88 LIG 0.28  C 
BRANCH 31 32
ATOM     32  CB  TYR B   1      62.932 146.215   0.581  1.00 21.24 LIG 0.08  C 
BRANCH 32 33
ATOM     33  CG  TYR B   1      64.352 146.568   0.210  1.00 20.81 LIG-0.06  A 
ATOM     34  CD1 TYR B   1      65.358 146.618   1.185  1.00 20.37 LIG 0.01  A 
ATOM     35  CE1 TYR B   1      66.667 146.942   0.845  1.00 19.95 LIG 0.04  A 
ATOM     36  CZ  TYR B   1      66.977 147.221  -0.488  1.00 20.32 LIG 0.07  A 
ATOM     37  CE2 TYR B   1      65.996 147.178  -1.470  1.00 20.63 LIG 0.04  A 
ATOM     38  CD2 TYR B   1      64.693 146.854  -1.119  1.00 20.57 LIG 0.01  A 
BRANCH 36 39
ATOM     39 OH   TYR B   1      68.261 147.540  -0.856  1.00 20.56 LIG-0.36  OA
ATOM     40 HH   TYR B   1      68.666 147.875  -0.201  1.00 20.56 LIG 0.22  HD
ENDBRANCH 36 39
ENDBRANCH 32 33
ENDBRANCH 31 32
BRANCH 31 41
ATOM     41  N   TYR B   1      62.205 148.589   0.532  1.00 21.11 LIG-0.07  N 
ATOM     42 H2   TYR B   1      62.529 148.562   1.361  1.00 21.11 LIG 0.28  HD
ATOM     43 H1   TYR B   1      61.468 149.089   0.518  1.00 21.11 LIG 0.28  HD
ATOM     44 H3   TYR B   1      62.813 148.943  -0.012  1.00 21.11 LIG 0.28  HD
ENDBRANCH 31 41
ENDBRANCH 28 31
ENDBRANCH 1 27
TORSDOF 15
ENDMDL
MODEL 12
USER: ADFR SOLUTION from run 86
USER: SCORE 13.963223 LL:  -2.400 LR: -12.119 RR:   0.000 FEB:  -7.644
USER: RMSD 5.582685
USER: SEED 85
USER: STATUS no improvement in best in 9 clusters for 5 generations
USER: GENES 17
USER: genes 0 Translation |==|  0.47248 0.43615 0.50161
USER: genes 1 Rotation |==|  0.48683 0.58285 0.40404 0.98348
USER: genes 2 Torsion [C]-CA--CB-[CG] |==|  0.33404
USER: genes 3 Torsion [CA]-CB--CG-[CD2] |==|  0.22066
USER: genes 4 Torsion [CE2]-CZ--OH-[HH] |==|  0.85868
USER: genes 5 Torsion [N]-CA--C-[N] |==|  0.97516
USER: genes 6 Torsion [C]-N--CA-[C] |==|  0.79265
USER: genes 7 Torsion [N]-CA--C-[O] |==|  0.15255
USER: genes 8 Torsion [N]-CA--CB-[CG] |==|  0.87341
USER: genes 9 Torsion [CA]-CB--CG-[CD2] |==|  0.72127
USER: genes 10 Torsion [CE2]-CZ--OH-[HH] |==|  0.58779
USER: genes 11 Torsion [CB]-CA--N-[C] |==|  0.22768
USER: genes 12 Torsion [N]-C--CA-[N] |==|  0.87876
USER: genes 13 Torsion [C]-CA--CB-[CG] |==|  0.56355
USER: genes 14 Torsion [CA]-CB--CG-[CD1] |==|  0.38617
USER: genes 15 Torsion [CE1]-CZ--OH-[HH] |==|  0.96568
USER: genes 16 Torsion [C]-CA--N-[H1] |==|  0.28358
ROOT
ATOM      1  CA  TYR B   2      59.639 148.102   2.544  1.00 28.44 LIG 0.18  C 
ENDROOT
BRANCH 1 2
ATOM      2  CB  TYR B   2      59.821 147.134   3.720  1.00 30.17 LIG 0.07  C 
BRANCH 2 3
ATOM      3  CG  TYR B   2      58.715 146.107   3.899  1.00 31.12 LIG-0.06  A 
ATOM      4  CD2 TYR B   2      58.665 144.954   3.103  1.00 31.81 LIG 0.01  A 
ATOM      5  CE2 TYR B   2      57.657 144.007   3.269  1.00 33.15 LIG 0.04  A 
ATOM      6  CZ  TYR B   2      56.682 144.206   4.239  1.00 33.29 LIG 0.07  A 
ATOM      7  CE1 TYR B   2      56.707 145.342   5.052  1.00 33.06 LIG 0.04  A 
ATOM      8  CD1 TYR B   2      57.721 146.282   4.879  1.00 32.67 LIG 0.01  A 
BRANCH 6 9
ATOM      9 OH   TYR B   2      55.688 143.275   4.396  1.00 34.60 LIG-0.36  OA
ATOM     10 HH   TYR B   2      55.337 143.112   3.651  1.00 34.60 LIG 0.22  HD
ENDBRANCH 6 9
ENDBRANCH 2 3
ENDBRANCH 1 2
BRANCH 1 11
ATOM     11  C   TYR B   2      59.592 149.531   3.044  1.00 30.52 LIG 0.24  C 
ATOM     12  N   TYR B   3      60.630 150.289   2.703  1.00 32.89 LIG-0.35  N 
ATOM     13 H    TYR B   3      61.307 149.994   2.263  1.00 32.89 LIG 0.16  HD
ATOM     14 O    TYR B   2      58.641 149.931   3.724  1.00 30.24 LIG-0.27  OA
BRANCH 12 15
ATOM     15  CA  TYR B   3      60.718 151.702   3.046  1.00 36.06 LIG 0.17  C 
BRANCH 15 16
ATOM     16  C   TYR B   3      59.791 152.541   2.167  1.00 37.31 LIG 0.22  C 
ATOM     17 O    TYR B   3      58.587 152.281   2.095  1.00 39.71 LIG-0.29  OA
ENDBRANCH 15 16
BRANCH 15 18
ATOM     18  CB  TYR B   3      62.166 152.187   2.924  1.00 37.43 LIG 0.07  C 
BRANCH 18 19
ATOM     19  CG  TYR B   3      63.173 151.253   3.550  1.00 38.24 LIG-0.06  A 
ATOM     20  CD2 TYR B   3      63.707 151.514   4.819  1.00 38.70 LIG 0.01  A 
ATOM     21  CE2 TYR B   3      64.632 150.649   5.397  1.00 39.79 LIG 0.04  A 
ATOM     22  CZ  TYR B   3      65.032 149.512   4.704  1.00 40.15 LIG 0.07  A 
ATOM     23  CE1 TYR B   3      64.518 149.231   3.442  1.00 39.97 LIG 0.04  A 
ATOM     24  CD1 TYR B   3      63.595 150.098   2.874  1.00 39.23 LIG 0.01  A 
BRANCH 22 25
ATOM     25 OH   TYR B   3      65.947 148.646   5.256  1.00 40.04 LIG-0.36  OA
ATOM     26 HH   TYR B   3      66.404 148.295   4.645  1.00 40.04 LIG 0.22  HD
ENDBRANCH 22 25
ENDBRANCH 18 19
ENDBRANCH 15 18
ENDBRANCH 12 15
ENDBRANCH 1 11
BRANCH 1 27
ATOM     27  N   TYR B   2      60.744 147.960   1.611  1.00 25.33 LIG-0.35  N 
ATOM     28  C   TYR B   1      60.797 147.005   0.687  1.00 22.87 LIG 0.25  C 
ATOM     29 O    TYR B   1      59.874 146.215   0.469  1.00 21.86 LIG-0.27  OA
ATOM     30 H    TYR B   2      61.361 148.550   1.714  1.00 25.33 LIG 0.16  HD
BRANCH 28 31
ATOM     31  CA  TYR B   1      62.090 146.940  -0.122  1.00 21.88 LIG 0.28  C 
BRANCH 31 32
ATOM     32  CB  TYR B   1      63.172 146.237   0.700  1.00 21.24 LIG 0.08  C 
BRANCH 32 33
ATOM     33  CG  TYR B   1      64.587 146.565   0.292  1.00 20.81 LIG-0.06  A 
ATOM     34  CD1 TYR B   1      65.583 146.775   1.256  1.00 20.37 LIG 0.01  A 
ATOM     35  CE1 TYR B   1      66.889 147.076   0.882  1.00 19.95 LIG 0.04  A 
ATOM     36  CZ  TYR B   1      67.205 147.170  -0.475  1.00 20.32 LIG 0.07  A 
ATOM     37  CE2 TYR B   1      66.234 146.966  -1.447  1.00 20.63 LIG 0.04  A 
ATOM     38  CD2 TYR B   1      64.935 146.666  -1.062  1.00 20.57 LIG 0.01  A 
BRANCH 36 39
ATOM     39 OH   TYR B   1      68.486 147.461  -0.877  1.00 20.56 LIG-0.36  OA
ATOM     40 HH   TYR B   1      68.934 147.722  -0.217  1.00 20.56 LIG 0.22  HD
ENDBRANCH 36 39
ENDBRANCH 32 33
ENDBRANCH 31 32
BRANCH 31 41
ATOM     41  N   TYR B   1      62.557 148.297  -0.543  1.00 21.11 LIG-0.07  N 
ATOM     42 H2   TYR B   1      62.841 148.265  -1.387  1.00 21.11 LIG 0.28  HD
ATOM     43 H1   TYR B   1      63.224 148.559  -0.015  1.00 21.11 LIG 0.28  HD
ATOM     44 H3   TYR B   1      61.883 148.876  -0.480  1.00 21.11 LIG 0.28  HD
ENDBRANCH 31 41
ENDBRANCH 28 31
ENDBRANCH 1 27
TORSDOF 15
ENDMDL
MODEL 13
USER: ADFR SOLUTION from run 116
USER: SCORE 14.876029 LL:  -3.342 LR: -12.109 RR:   0.000 FEB:  -7.634
USER: RMSD 6.267580
USER: SEED 115
USER: STATUS no improvement in best in 6 clusters for 5 generations
USER: GENES 17
USER: genes 0 Translation |==|  0.47029 0.43484 0.49457
USER: genes 1 Rotation |==|  0.48663 0.57054 0.40405 0.98543
USER: genes 2 Torsion [C]-CA--CB-[CG] |==|  0.89880
USER: genes 3 Torsion [CA]-CB--CG-[CD2] |==|  0.24968
USER: genes 4 Torsion [CE2]-CZ--OH-[HH] |==|  0.26875
USER: genes 5 Torsion [N]-CA--C-[N] |==|  0.96667
USER: genes 6 Torsion [C]-N--CA-[C] |==|  0.81044
USER: genes 7 Torsion [N]-CA--C-[O] |==|  0.16431
USER: genes 8 Torsion [N]-CA--CB-[CG] |==|  0.87495
USER: genes 9 Torsion [CA]-CB--CG-[CD2] |==|  0.71002
USER: genes 10 Torsion [CE2]-CZ--OH-[HH] |==|  0.64029
USER: genes 11 Torsion [CB]-CA--N-[C] |==|  0.22603
USER: genes 12 Torsion [N]-C--CA-[N] |==|  0.86317
USER: genes 13 Torsion [C]-CA--CB-[CG] |==|  0.55120
USER: genes 14 Torsion [CA]-CB--CG-[CD1] |==|  0.42252
USER: genes 15 Torsion [CE1]-CZ--OH-[HH] |==|  0.89827
USER: genes 16 Torsion [C]-CA--N-[H1] |==|  0.29139
ROOT
ATOM      1  CA  TYR B   2      59.585 148.076   2.434  1.00 28.44 LIG 0.18  C 
ENDROOT
BRANCH 1 2
ATOM      2  CB  TYR B   2      59.712 147.120   3.626  1.00 30.17 LIG 0.07  C 
BRANCH 2 3
ATOM      3  CG  TYR B   2      60.554 147.629   4.786  1.00 31.12 LIG-0.06  A 
ATOM      4  CD2 TYR B   2      59.974 148.362   5.831  1.00 31.81 LIG 0.01  A 
ATOM      5  CE2 TYR B   2      60.740 148.824   6.898  1.00 33.15 LIG 0.04  A 
ATOM      6  CZ  TYR B   2      62.103 148.556   6.930  1.00 33.29 LIG 0.07  A 
ATOM      7  CE1 TYR B   2      62.710 147.825   5.906  1.00 33.06 LIG 0.04  A 
ATOM      8  CD1 TYR B   2      61.934 147.366   4.844  1.00 32.67 LIG 0.01  A 
BRANCH 6 9
ATOM      9 OH   TYR B   2      62.856 149.018   7.979  1.00 34.60 LIG-0.36  OA
ATOM     10 HH   TYR B   2      62.946 148.408   8.549  1.00 34.60 LIG 0.22  HD
ENDBRANCH 6 9
ENDBRANCH 2 3
ENDBRANCH 1 2
BRANCH 1 11
ATOM     11  C   TYR B   2      59.509 149.509   2.916  1.00 30.52 LIG 0.24  C 
ATOM     12  N   TYR B   3      60.587 150.249   2.674  1.00 32.89 LIG-0.35  N 
ATOM     13 H    TYR B   3      61.300 149.942   2.306  1.00 32.89 LIG 0.16  HD
ATOM     14 O    TYR B   2      58.502 149.928   3.496  1.00 30.24 LIG-0.27  OA
BRANCH 12 15
ATOM     15  CA  TYR B   3      60.662 151.664   3.014  1.00 36.06 LIG 0.17  C 
BRANCH 15 16
ATOM     16  C   TYR B   3      59.717 152.491   2.142  1.00 37.31 LIG 0.22  C 
ATOM     17 O    TYR B   3      58.504 152.266   2.141  1.00 39.71 LIG-0.29  OA
ENDBRANCH 15 16
BRANCH 15 18
ATOM     18  CB  TYR B   3      62.103 152.166   2.878  1.00 37.43 LIG 0.07  C 
BRANCH 18 19
ATOM     19  CG  TYR B   3      63.128 151.238   3.484  1.00 38.24 LIG-0.06  A 
ATOM     20  CD2 TYR B   3      63.737 151.539   4.710  1.00 38.70 LIG 0.01  A 
ATOM     21  CE2 TYR B   3      64.678 150.681   5.270  1.00 39.79 LIG 0.04  A 
ATOM     22  CZ  TYR B   3      65.020 149.510   4.603  1.00 40.15 LIG 0.07  A 
ATOM     23  CE1 TYR B   3      64.430 149.189   3.383  1.00 39.97 LIG 0.04  A 
ATOM     24  CD1 TYR B   3      63.492 150.049   2.833  1.00 39.23 LIG 0.01  A 
BRANCH 22 25
ATOM     25 OH   TYR B   3      65.950 148.649   5.137  1.00 40.04 LIG-0.36  OA
ATOM     26 HH   TYR B   3      66.527 148.465   4.557  1.00 40.04 LIG 0.22  HD
ENDBRANCH 22 25
ENDBRANCH 18 19
ENDBRANCH 15 18
ENDBRANCH 12 15
ENDBRANCH 1 11
BRANCH 1 27
ATOM     27  N   TYR B   2      60.735 147.928   1.557  1.00 25.33 LIG-0.35  N 
ATOM     28  C   TYR B   1      60.840 146.957   0.653  1.00 22.87 LIG 0.25  C 
ATOM     29 O    TYR B   1      59.935 146.154   0.407  1.00 21.86 LIG-0.27  OA
ATOM     30 H    TYR B   2      61.341 148.526   1.678  1.00 25.33 LIG 0.16  HD
BRANCH 28 31
ATOM     31  CA  TYR B   1      62.171 146.891  -0.092  1.00 21.88 LIG 0.28  C 
BRANCH 31 32
ATOM     32  CB  TYR B   1      63.252 146.341   0.842  1.00 21.24 LIG 0.08  C 
BRANCH 32 33
ATOM     33  CG  TYR B   1      64.668 146.623   0.402  1.00 20.81 LIG-0.06  A 
ATOM     34  CD1 TYR B   1      65.704 146.728   1.340  1.00 20.37 LIG 0.01  A 
ATOM     35  CE1 TYR B   1      67.010 146.986   0.936  1.00 19.95 LIG 0.04  A 
ATOM     36  CZ  TYR B   1      67.285 147.143  -0.424  1.00 20.32 LIG 0.07  A 
ATOM     37  CE2 TYR B   1      66.274 147.043  -1.370  1.00 20.63 LIG 0.04  A 
ATOM     38  CD2 TYR B   1      64.975 146.786  -0.955  1.00 20.57 LIG 0.01  A 
BRANCH 36 39
ATOM     39 OH   TYR B   1      68.565 147.395  -0.854  1.00 20.56 LIG-0.36  OA
ATOM     40 HH   TYR B   1      68.953 147.896  -0.303  1.00 20.56 LIG 0.22  HD
ENDBRANCH 36 39
ENDBRANCH 32 33
ENDBRANCH 31 32
BRANCH 31 41
ATOM     41  N   TYR B   1      62.578 148.224  -0.631  1.00 21.11 LIG-0.07  N 
ATOM     42 H2   TYR B   1      62.865 148.131  -1.469  1.00 21.11 LIG 0.28  HD
ATOM     43 H1   TYR B   1      63.233 148.560  -0.130  1.00 21.11 LIG 0.28  HD
ATOM     44 H3   TYR B   1      61.881 148.776  -0.617  1.00 21.11 LIG 0.28  HD
ENDBRANCH 31 41
ENDBRANCH 28 31
ENDBRANCH 1 27
TORSDOF 15
ENDMDL
MODEL 14
USER: ADFR SOLUTION from run 95
USER: SCORE 13.316922 LL:  -2.254 LR: -12.077 RR:   0.000 FEB:  -7.603
USER: RMSD 4.121623
USER: SEED 94
USER: STATUS no improvement in best in 9 clusters for 5 generations
USER: GENES 17
USER: genes 0 Translation |==|  0.46055 0.47272 0.50041
USER: genes 1 Rotation |==|  0.63947 0.39294 0.34652 0.94219
USER: genes 2 Torsion [C]-CA--CB-[CG] |==|  0.17705
USER: genes 3 Torsion [CA]-CB--CG-[CD2] |==|  0.05257
USER: genes 4 Torsion [CE2]-CZ--OH-[HH] |==|  0.85585
USER: genes 5 Torsion [N]-CA--C-[N] |==|  0.38334
USER: genes 6 Torsion [C]-N--CA-[C] |==|  0.58200
USER: genes 7 Torsion [N]-CA--C-[O] |==|  0.96057
USER: genes 8 Torsion [N]-CA--CB-[CG] |==|  0.14471
USER: genes 9 Torsion [CA]-CB--CG-[CD2] |==|  0.69946
USER: genes 10 Torsion [CE2]-CZ--OH-[HH] |==|  0.64292
USER: genes 11 Torsion [CB]-CA--N-[C] |==|  0.21147
USER: genes 12 Torsion [N]-C--CA-[N] |==|  0.14636
USER: genes 13 Torsion [C]-CA--CB-[CG] |==|  0.36889
USER: genes 14 Torsion [CA]-CB--CG-[CD1] |==|  0.17489
USER: genes 15 Torsion [CE1]-CZ--OH-[HH] |==|  0.89520
USER: genes 16 Torsion [C]-CA--N-[H1] |==|  0.47050
ROOT
ATOM      1  CA  TYR B   2      59.344 148.843   2.525  1.00 28.44 LIG 0.18  C 
ENDROOT
BRANCH 1 2
ATOM      2  CB  TYR B   2      58.402 147.675   2.846  1.00 30.17 LIG 0.07  C 
BRANCH 2 3
ATOM      3  CG  TYR B   2      56.920 147.962   2.666  1.00 31.12 LIG-0.06  A 
ATOM      4  CD2 TYR B   2      56.484 149.039   1.882  1.00 31.81 LIG 0.01  A 
ATOM      5  CE2 TYR B   2      55.127 149.301   1.708  1.00 33.15 LIG 0.04  A 
ATOM      6  CZ  TYR B   2      54.187 148.482   2.322  1.00 33.29 LIG 0.07  A 
ATOM      7  CE1 TYR B   2      54.589 147.398   3.105  1.00 33.06 LIG 0.04  A 
ATOM      8  CD1 TYR B   2      55.949 147.144   3.271  1.00 32.67 LIG 0.01  A 
BRANCH 6 9
ATOM      9 OH   TYR B   2      52.851 148.746   2.154  1.00 34.60 LIG-0.36  OA
ATOM     10 HH   TYR B   2      52.699 149.550   2.342  1.00 34.60 LIG 0.22  HD
ENDBRANCH 6 9
ENDBRANCH 2 3
ENDBRANCH 1 2
BRANCH 1 11
ATOM     11  C   TYR B   2      59.099 149.992   3.481  1.00 30.52 LIG 0.24  C 
ATOM     12  N   TYR B   3      58.371 150.993   2.994  1.00 32.89 LIG-0.35  N 
ATOM     13 H    TYR B   3      58.085 151.020   2.184  1.00 32.89 LIG 0.16  HD
ATOM     14 O    TYR B   2      59.562 149.970   4.626  1.00 30.24 LIG-0.27  OA
BRANCH 12 15
ATOM     15  CA  TYR B   3      57.988 152.148   3.795  1.00 36.06 LIG 0.17  C 
BRANCH 15 16
ATOM     16  C   TYR B   3      56.659 152.733   3.318  1.00 37.31 LIG 0.22  C 
ATOM     17 O    TYR B   3      56.184 152.407   2.226  1.00 39.71 LIG-0.29  OA
ENDBRANCH 15 16
BRANCH 15 18
ATOM     18  CB  TYR B   3      59.091 153.209   3.756  1.00 37.43 LIG 0.07  C 
BRANCH 18 19
ATOM     19  CG  TYR B   3      59.527 153.582   2.360  1.00 38.24 LIG-0.06  A 
ATOM     20  CD2 TYR B   3      60.774 153.181   1.863  1.00 38.70 LIG 0.01  A 
ATOM     21  CE2 TYR B   3      61.172 153.520   0.573  1.00 39.79 LIG 0.04  A 
ATOM     22  CZ  TYR B   3      60.320 154.270  -0.231  1.00 40.15 LIG 0.07  A 
ATOM     23  CE1 TYR B   3      59.077 154.682   0.239  1.00 39.97 LIG 0.04  A 
ATOM     24  CD1 TYR B   3      58.688 154.337   1.526  1.00 39.23 LIG 0.01  A 
BRANCH 22 25
ATOM     25 OH   TYR B   3      60.695 154.619  -1.508  1.00 40.04 LIG-0.36  OA
ATOM     26 HH   TYR B   3      60.596 155.446  -1.613  1.00 40.04 LIG 0.22  HD
ENDBRANCH 22 25
ENDBRANCH 18 19
ENDBRANCH 15 18
ENDBRANCH 12 15
ENDBRANCH 1 11
BRANCH 1 27
ATOM     27  N   TYR B   2      60.726 148.409   2.645  1.00 25.33 LIG-0.35  N 
ATOM     28  C   TYR B   1      61.335 147.660   1.730  1.00 22.87 LIG 0.25  C 
ATOM     29 O    TYR B   1      60.819 147.346   0.653  1.00 21.86 LIG-0.27  OA
ATOM     30 H    TYR B   2      61.113 148.682   3.363  1.00 25.33 LIG 0.16  HD
BRANCH 28 31
ATOM     31  CA  TYR B   1      62.748 147.204   2.085  1.00 21.88 LIG 0.28  C 
BRANCH 31 32
ATOM     32  CB  TYR B   1      63.270 146.265   0.995  1.00 21.24 LIG 0.08  C 
BRANCH 32 33
ATOM     33  CG  TYR B   1      64.667 146.574   0.513  1.00 20.81 LIG-0.06  A 
ATOM     34  CD1 TYR B   1      65.762 146.492   1.385  1.00 20.37 LIG 0.01  A 
ATOM     35  CE1 TYR B   1      67.050 146.774   0.943  1.00 19.95 LIG 0.04  A 
ATOM     36  CZ  TYR B   1      67.249 147.145  -0.388  1.00 20.32 LIG 0.07  A 
ATOM     37  CE2 TYR B   1      66.179 147.232  -1.269  1.00 20.63 LIG 0.04  A 
ATOM     38  CD2 TYR B   1      64.898 146.949  -0.816  1.00 20.57 LIG 0.01  A 
BRANCH 36 39
ATOM     39 OH   TYR B   1      68.509 147.426  -0.856  1.00 20.56 LIG-0.36  OA
ATOM     40 HH   TYR B   1      68.945 147.831  -0.263  1.00 20.56 LIG 0.22  HD
ENDBRANCH 36 39
ENDBRANCH 32 33
ENDBRANCH 31 32
BRANCH 31 41
ATOM     41  N   TYR B   1      62.801 146.531   3.419  1.00 21.11 LIG-0.07  N 
ATOM     42 H2   TYR B   1      62.676 147.135   4.061  1.00 21.11 LIG 0.28  HD
ATOM     43 H1   TYR B   1      63.596 146.145   3.525  1.00 21.11 LIG 0.28  HD
ATOM     44 H3   TYR B   1      62.162 145.913   3.466  1.00 21.11 LIG 0.28  HD
ENDBRANCH 31 41
ENDBRANCH 28 31
ENDBRANCH 1 27
TORSDOF 15
ENDMDL
MODEL 15
USER: ADFR SOLUTION from run 44
USER: SCORE 14.253415 LL:  -2.764 LR: -11.972 RR:   0.000 FEB:  -7.498
USER: RMSD 5.062007
USER: SEED 43
USER: STATUS searching
USER: GENES 17
USER: genes 0 Translation |==|  0.46881 0.46906 0.52250
USER: genes 1 Rotation |==|  0.55508 0.47840 0.55473 0.99346
USER: genes 2 Torsion [C]-CA--CB-[CG] |==|  0.80390
USER: genes 3 Torsion [CA]-CB--CG-[CD2] |==|  0.24311
USER: genes 4 Torsion [CE2]-CZ--OH-[HH] |==|  0.30245
USER: genes 5 Torsion [N]-CA--C-[N] |==|  0.12802
USER: genes 6 Torsion [C]-N--CA-[C] |==|  0.71741
USER: genes 7 Torsion [N]-CA--C-[O] |==|  0.07980
USER: genes 8 Torsion [N]-CA--CB-[CG] |==|  0.14088
USER: genes 9 Torsion [CA]-CB--CG-[CD2] |==|  0.77576
USER: genes 10 Torsion [CE2]-CZ--OH-[HH] |==|  0.68010
USER: genes 11 Torsion [CB]-CA--N-[C] |==|  0.77050
USER: genes 12 Torsion [N]-C--CA-[N] |==|  0.40488
USER: genes 13 Torsion [C]-CA--CB-[CG] |==|  0.20176
USER: genes 14 Torsion [CA]-CB--CG-[CD1] |==|  0.51856
USER: genes 15 Torsion [CE1]-CZ--OH-[HH] |==|  0.97616
USER: genes 16 Torsion [C]-CA--N-[H1] |==|  0.63943
ROOT
ATOM      1  CA  TYR B   2      59.548 148.768   2.873  1.00 28.44 LIG 0.18  C 
ENDROOT
BRANCH 1 2
ATOM      2  CB  TYR B   2      59.851 147.616   3.840  1.00 30.17 LIG 0.07  C 
BRANCH 2 3
ATOM      3  CG  TYR B   2      60.634 147.996   5.086  1.00 31.12 LIG-0.06  A 
ATOM      4  CD2 TYR B   2      59.977 148.443   6.242  1.00 31.81 LIG 0.01  A 
ATOM      5  CE2 TYR B   2      60.690 148.785   7.389  1.00 33.15 LIG 0.04  A 
ATOM      6  CZ  TYR B   2      62.077 148.684   7.389  1.00 33.29 LIG 0.07  A 
ATOM      7  CE1 TYR B   2      62.759 148.238   6.256  1.00 33.06 LIG 0.04  A 
ATOM      8  CD1 TYR B   2      62.036 147.897   5.115  1.00 32.67 LIG 0.01  A 
BRANCH 6 9
ATOM      9 OH   TYR B   2      62.776 149.028   8.518  1.00 34.60 LIG-0.36  OA
ATOM     10 HH   TYR B   2      63.087 148.335   8.876  1.00 34.60 LIG 0.22  HD
ENDBRANCH 6 9
ENDBRANCH 2 3
ENDBRANCH 1 2
BRANCH 1 11
ATOM     11  C   TYR B   2      58.521 149.703   3.478  1.00 30.52 LIG 0.24  C 
ATOM     12  N   TYR B   3      58.382 150.873   2.861  1.00 32.89 LIG-0.35  N 
ATOM     13 H    TYR B   3      58.861 151.114   2.188  1.00 32.89 LIG 0.16  HD
ATOM     14 O    TYR B   2      57.878 149.372   4.479  1.00 30.24 LIG-0.27  OA
BRANCH 12 15
ATOM     15  CA  TYR B   3      57.398 151.866   3.269  1.00 36.06 LIG 0.17  C 
BRANCH 15 16
ATOM     16  C   TYR B   3      56.181 151.849   2.344  1.00 37.31 LIG 0.22  C 
ATOM     17 O    TYR B   3      55.845 150.812   1.766  1.00 39.71 LIG-0.29  OA
ENDBRANCH 15 16
BRANCH 15 18
ATOM     18  CB  TYR B   3      58.033 153.259   3.303  1.00 37.43 LIG 0.07  C 
BRANCH 18 19
ATOM     19  CG  TYR B   3      58.776 153.619   2.039  1.00 38.24 LIG-0.06  A 
ATOM     20  CD2 TYR B   3      60.078 153.154   1.811  1.00 38.70 LIG 0.01  A 
ATOM     21  CE2 TYR B   3      60.759 153.482   0.643  1.00 39.79 LIG 0.04  A 
ATOM     22  CZ  TYR B   3      60.140 154.284  -0.309  1.00 40.15 LIG 0.07  A 
ATOM     23  CE1 TYR B   3      58.847 154.760  -0.106  1.00 39.97 LIG 0.04  A 
ATOM     24  CD1 TYR B   3      58.175 154.426   1.061  1.00 39.23 LIG 0.01  A 
BRANCH 22 25
ATOM     25 OH   TYR B   3      60.796 154.623  -1.470  1.00 40.04 LIG-0.36  OA
ATOM     26 HH   TYR B   3      60.926 155.452  -1.487  1.00 40.04 LIG 0.22  HD
ENDBRANCH 22 25
ENDBRANCH 18 19
ENDBRANCH 15 18
ENDBRANCH 12 15
ENDBRANCH 1 11
BRANCH 1 27
ATOM     27  N   TYR B   2      60.765 149.513   2.596  1.00 25.33 LIG-0.35  N 
ATOM     28  C   TYR B   1      61.237 150.461   3.401  1.00 22.87 LIG 0.25  C 
ATOM     29 O    TYR B   1      60.743 150.730   4.500  1.00 21.86 LIG-0.27  OA
ATOM     30 H    TYR B   2      61.152 149.282   1.863  1.00 25.33 LIG 0.16  HD
BRANCH 28 31
ATOM     31  CA  TYR B   1      62.460 151.215   2.886  1.00 21.88 LIG 0.28  C 
BRANCH 31 32
ATOM     32  CB  TYR B   1      63.733 150.522   3.377  1.00 21.24 LIG 0.08  C 
BRANCH 32 33
ATOM     33  CG  TYR B   1      64.038 149.209   2.698  1.00 20.81 LIG-0.06  A 
ATOM     34  CD1 TYR B   1      65.091 148.398   3.142  1.00 20.37 LIG 0.01  A 
ATOM     35  CE1 TYR B   1      65.373 147.187   2.519  1.00 19.95 LIG 0.04  A 
ATOM     36  CZ  TYR B   1      64.592 146.780   1.435  1.00 20.32 LIG 0.07  A 
ATOM     37  CE2 TYR B   1      63.544 147.567   0.979  1.00 20.63 LIG 0.04  A 
ATOM     38  CD2 TYR B   1      63.272 148.774   1.609  1.00 20.57 LIG 0.01  A 
BRANCH 36 39
ATOM     39 OH   TYR B   1      64.842 145.587   0.801  1.00 20.56 LIG-0.36  OA
ATOM     40 HH   TYR B   1      65.560 145.261   1.090  1.00 20.56 LIG 0.22  HD
ENDBRANCH 36 39
ENDBRANCH 32 33
ENDBRANCH 31 32
BRANCH 31 41
ATOM     41  N   TYR B   1      62.453 152.649   3.308  1.00 21.11 LIG-0.07  N 
ATOM     42 H2   TYR B   1      61.664 152.849   3.669  1.00 21.11 LIG 0.28  HD
ATOM     43 H1   TYR B   1      62.595 153.169   2.599  1.00 21.11 LIG 0.28  HD
ATOM     44 H3   TYR B   1      63.096 152.785   3.909  1.00 21.11 LIG 0.28  HD
ENDBRANCH 31 41
ENDBRANCH 28 31
ENDBRANCH 1 27
TORSDOF 15
ENDMDL
MODEL 16
USER: ADFR SOLUTION from run 117
USER: SCORE 13.874220 LL:  -3.642 LR: -11.937 RR:   0.000 FEB:  -7.462
USER: RMSD 6.065416
USER: SEED 116
USER: STATUS no improvement in best in 8 clusters for 5 generations
USER: GENES 17
USER: genes 0 Translation |==|  0.58613 0.38980 0.66328
USER: genes 1 Rotation |==|  0.31510 0.64925 0.72395 0.87866
USER: genes 2 Torsion [C]-CA--CB-[CG] |==|  0.77180
USER: genes 3 Torsion [CA]-CB--CG-[CD2] |==|  0.24922
USER: genes 4 Torsion [CE2]-CZ--OH-[HH] |==|  0.89600
USER: genes 5 Torsion [N]-CA--C-[N] |==|  0.06153
USER: genes 6 Torsion [C]-N--CA-[C] |==|  0.71162
USER: genes 7 Torsion [N]-CA--C-[O] |==|  0.83272
USER: genes 8 Torsion [N]-CA--CB-[CG] |==|  0.90790
USER: genes 9 Torsion [CA]-CB--CG-[CD2] |==|  0.71830
USER: genes 10 Torsion [CE2]-CZ--OH-[HH] |==|  0.02253
USER: genes 11 Torsion [CB]-CA--N-[C] |==|  0.43138
USER: genes 12 Torsion [N]-C--CA-[N] |==|  0.99428
USER: genes 13 Torsion [C]-CA--CB-[CG] |==|  0.67245
USER: genes 14 Torsion [CA]-CB--CG-[CD1] |==|  0.22751
USER: genes 15 Torsion [CE1]-CZ--OH-[HH] |==|  0.91741
USER: genes 16 Torsion [C]-CA--N-[H1] |==|  0.52946
ROOT
ATOM      1  CA  TYR B   2      62.452 147.164   5.091  1.00 28.44 LIG 0.18  C 
ENDROOT
BRANCH 1 2
ATOM      2  CB  TYR B   2      63.530 147.902   5.894  1.00 30.17 LIG 0.07  C 
BRANCH 2 3
ATOM      3  CG  TYR B   2      63.862 149.304   5.408  1.00 31.12 LIG-0.06  A 
ATOM      4  CD2 TYR B   2      63.167 150.420   5.896  1.00 31.81 LIG 0.01  A 
ATOM      5  CE2 TYR B   2      63.474 151.707   5.458  1.00 33.15 LIG 0.04  A 
ATOM      6  CZ  TYR B   2      64.484 151.890   4.522  1.00 33.29 LIG 0.07  A 
ATOM      7  CE1 TYR B   2      65.198 150.799   4.021  1.00 33.06 LIG 0.04  A 
ATOM      8  CD1 TYR B   2      64.884 149.517   4.466  1.00 32.67 LIG 0.01  A 
BRANCH 6 9
ATOM      9 OH   TYR B   2      64.779 153.157   4.089  1.00 34.60 LIG-0.36  OA
ATOM     10 HH   TYR B   2      64.070 153.602   4.019  1.00 34.60 LIG 0.22  HD
ENDBRANCH 6 9
ENDBRANCH 2 3
ENDBRANCH 1 2
BRANCH 1 11
ATOM     11  C   TYR B   2      61.073 147.593   5.545  1.00 30.52 LIG 0.24  C 
ATOM     12  N   TYR B   3      60.161 147.694   4.582  1.00 32.89 LIG-0.35  N 
ATOM     13 H    TYR B   3      60.335 147.566   3.749  1.00 32.89 LIG 0.16  HD
ATOM     14 O    TYR B   2      60.846 147.831   6.736  1.00 30.24 LIG-0.27  OA
BRANCH 12 15
ATOM     15  CA  TYR B   3      58.770 148.034   4.848  1.00 36.06 LIG 0.17  C 
BRANCH 15 16
ATOM     16  C   TYR B   3      57.873 146.800   4.760  1.00 37.31 LIG 0.22  C 
ATOM     17 O    TYR B   3      57.792 146.155   3.711  1.00 39.71 LIG-0.29  OA
ENDBRANCH 15 16
BRANCH 15 18
ATOM     18  CB  TYR B   3      58.294 149.119   3.877  1.00 37.43 LIG 0.07  C 
BRANCH 18 19
ATOM     19  CG  TYR B   3      59.375 150.097   3.482  1.00 38.24 LIG-0.06  A 
ATOM     20  CD2 TYR B   3      59.446 151.368   4.067  1.00 38.70 LIG 0.01  A 
ATOM     21  CE2 TYR B   3      60.446 152.266   3.707  1.00 39.79 LIG 0.04  A 
ATOM     22  CZ  TYR B   3      61.385 151.897   2.751  1.00 40.15 LIG 0.07  A 
ATOM     23  CE1 TYR B   3      61.336 150.640   2.153  1.00 39.97 LIG 0.04  A 
ATOM     24  CD1 TYR B   3      60.337 149.751   2.521  1.00 39.23 LIG 0.01  A 
BRANCH 22 25
ATOM     25 OH   TYR B   3      62.381 152.770   2.377  1.00 40.04 LIG-0.36  OA
ATOM     26 HH   TYR B   3      62.368 153.441   2.882  1.00 40.04 LIG 0.22  HD
ENDBRANCH 22 25
ENDBRANCH 18 19
ENDBRANCH 15 18
ENDBRANCH 12 15
ENDBRANCH 1 11
BRANCH 1 27
ATOM     27  N   TYR B   2      62.601 147.459   3.675  1.00 25.33 LIG-0.35  N 
ATOM     28  C   TYR B   1      62.167 146.649   2.714  1.00 22.87 LIG 0.25  C 
ATOM     29 O    TYR B   1      61.515 145.624   2.929  1.00 21.86 LIG-0.27  OA
ATOM     30 H    TYR B   2      62.996 148.207   3.518  1.00 25.33 LIG 0.16  HD
BRANCH 28 31
ATOM     31  CA  TYR B   1      62.520 147.069   1.288  1.00 21.88 LIG 0.28  C 
BRANCH 31 32
ATOM     32  CB  TYR B   1      63.345 145.966   0.621  1.00 21.24 LIG 0.08  C 
BRANCH 32 33
ATOM     33  CG  TYR B   1      64.738 146.380   0.214  1.00 20.81 LIG-0.06  A 
ATOM     34  CD1 TYR B   1      65.784 146.395   1.146  1.00 20.37 LIG 0.01  A 
ATOM     35  CE1 TYR B   1      67.069 146.774   0.773  1.00 19.95 LIG 0.04  A 
ATOM     36  CZ  TYR B   1      67.313 147.145  -0.552  1.00 20.32 LIG 0.07  A 
ATOM     37  CE2 TYR B   1      66.291 147.137  -1.492  1.00 20.63 LIG 0.04  A 
ATOM     38  CD2 TYR B   1      65.014 146.757  -1.107  1.00 20.57 LIG 0.01  A 
BRANCH 36 39
ATOM     39 OH   TYR B   1      68.572 147.520  -0.953  1.00 20.56 LIG-0.36  OA
ATOM     40 HH   TYR B   1      68.980 147.870  -0.307  1.00 20.56 LIG 0.22  HD
ENDBRANCH 36 39
ENDBRANCH 32 33
ENDBRANCH 31 32
BRANCH 31 41
ATOM     41  N   TYR B   1      63.262 148.366   1.253  1.00 21.11 LIG-0.07  N 
ATOM     42 H2   TYR B   1      62.830 148.969   1.747  1.00 21.11 LIG 0.28  HD
ATOM     43 H1   TYR B   1      63.315 148.655   0.413  1.00 21.11 LIG 0.28  HD
ATOM     44 H3   TYR B   1      64.082 148.249   1.580  1.00 21.11 LIG 0.28  HD
ENDBRANCH 31 41
ENDBRANCH 28 31
ENDBRANCH 1 27
TORSDOF 15
ENDMDL
