MODEL 1
USER: ADFR SOLUTION from run 177
USER: SCORE 15.464995 LL:  -2.975 LR: -13.325 RR:   0.000 FEB:  -8.851
USER: RMSD 3.126583
USER: SEED 176
USER: STATUS no improvement in best in 4 clusters for 5 generations
USER: GENES 17
USER: genes 0 Translation |==|  0.38376 0.49607 0.42357
USER: genes 1 Rotation |==|  0.83298 0.60048 0.36285 0.83198
USER: genes 2 Torsion [N]-C--CA-[N] |==|  0.01267
USER: genes 3 Torsion [C]-CA--CB-[OG] |==|  0.81859
USER: genes 4 Torsion [CA]-CB--OG-[HG] |==|  0.66043
USER: genes 5 Torsion [C]-CA--N-[C] |==|  0.72982
USER: genes 6 Torsion [N]-C--CA-[N] |==|  0.39306
USER: genes 7 Torsion [C]-CA--N-[C] |==|  0.68402
USER: genes 8 Torsion [N]-C--CA-[N] |==|  0.64099
USER: genes 9 Torsion [C]-CA--CB-[CG] |==|  0.23165
USER: genes 10 Torsion [CA]-CB--CG-[ND2] |==|  0.71235
USER: genes 11 Torsion [C]-N--CA-[CB] |==|  0.51487
USER: genes 12 Torsion [N]-CA--C-[N] |==|  0.34446
USER: genes 13 Torsion [N]-CA--C-[N] |==|  0.20994
USER: genes 14 Torsion [C]-N--CA-[C] |==|  0.74176
USER: genes 15 Torsion [N]-CA--C-[O] |==|  0.21444
USER: genes 16 Torsion [N]-CA--CB-[CG2] |==|  0.83601
ROOT
ATOM      1  C   SER E1029      79.399  -3.714 162.114  1.00 13.48 LIG 0.24  C 
ATOM      2 O    SER E1029      78.476  -2.919 162.157  1.00 12.15 LIG-0.27  OA
ATOM      3  N   ALA E1030      79.559  -4.692 163.023  1.00 12.52 LIG-0.35  N 
ATOM      4 H    ALA E1030      80.238  -5.218 163.052  1.00 12.52 LIG 0.16  HD
ENDROOT
BRANCH 1 5
ATOM      5  CA  SER E1029      80.449  -3.625 161.031  1.00 13.36 LIG 0.20  C 
BRANCH 5 6
ATOM      6  CB  SER E1029      79.781  -3.691 159.663  1.00 14.53 LIG 0.20  C 
BRANCH 6 7
ATOM      7 OG   SER E1029      79.177  -4.979 159.491  1.00 16.05 LIG-0.40  OA
ATOM      8 HG   SER E1029      79.495  -5.349 158.807  1.00 16.05 LIG 0.21  HD
ENDBRANCH 6 7
ENDBRANCH 5 6
BRANCH 5 9
ATOM      9  N   SER E1029      81.403  -4.728 161.141  1.00 13.57 LIG-0.34  N 
ATOM     10 H    SER E1029      81.142  -5.463 160.780  1.00 13.57 LIG 0.16  HD
ATOM     11  C   ALA E1028      82.574  -4.571 161.760  1.00 13.26 LIG 0.24  C 
ATOM     12 O    ALA E1028      82.860  -3.582 162.401  1.00 11.29 LIG-0.27  OA
BRANCH 11 13
ATOM     13  CA  ALA E1028      83.579  -5.719 161.621  1.00 14.25 LIG 0.17  C 
ATOM     14  CB  ALA E1028      83.470  -6.652 162.825  1.00 14.71 LIG 0.04  C 
BRANCH 13 15
ATOM     15  N   ALA E1028      84.939  -5.195 161.478  1.00 14.53 LIG-0.35  N 
ATOM     16 H    ALA E1028      85.239  -4.788 162.174  1.00 14.53 LIG 0.16  HD
ATOM     17  C   ASN E1027      85.626  -5.348 160.360  1.00 16.30 LIG 0.26  C 
ATOM     18 O    ASN E1027      85.129  -5.902 159.342  1.00 15.77 LIG-0.27  OA
BRANCH 17 19
ATOM     19  CA  ASN E1027      87.057  -4.780 160.375  1.00 16.82 LIG 0.41  C 
ATOM     20  N   ASN E1027      87.353  -3.894 159.208  1.00 18.81 LIG 0.61  N 
BRANCH 19 21
ATOM     21  CB  ASN E1027      87.348  -3.941 161.656  1.00 15.29 LIG 0.15  C 
BRANCH 21 22
ATOM     22  CG  ASN E1027      87.759  -4.798 162.853  1.00 13.40 LIG 0.22  C 
ATOM     23 OD1  ASN E1027      88.912  -5.226 162.981  1.00 12.35 LIG-0.27  OA
ATOM     24  ND2 ASN E1027      86.820  -4.981 163.774  1.00 11.10 LIG-0.37  N 
ATOM     25 22HD ASN E1027      86.028  -4.668 163.649  1.00 11.10 LIG 0.16  HD
ATOM     26 21HD ASN E1027      87.003  -5.412 164.495  1.00 11.10 LIG 0.16  HD
ENDBRANCH 21 22
ENDBRANCH 19 21
ENDBRANCH 17 19
ENDBRANCH 13 15
ENDBRANCH 11 13
ENDBRANCH 5 9
ENDBRANCH 1 5
BRANCH 3 27
ATOM     27  CA  ALA E1030      78.562  -4.932 164.053  1.00 12.56 LIG 0.17  C 
ATOM     28  CB  ALA E1030      79.105  -6.013 164.999  1.00 12.51 LIG 0.04  C 
BRANCH 27 29
ATOM     29  C   ALA E1030      78.288  -3.606 164.849  1.00 13.31 LIG 0.24  C 
ATOM     30  N   PRO E1031      77.059  -3.154 164.920  1.00 14.65 LIG-0.34  N 
ATOM     31  CD  PRO E1031      75.883  -3.707 164.228  1.00 15.56 LIG 0.13  C 
ATOM     32  CA  PRO E1031      76.696  -1.985 165.782  1.00 16.02 LIG 0.18  C 
ATOM     33  CG  PRO E1031      74.777  -2.810 164.662  1.00 15.81 LIG 0.02  C 
ATOM     34  CB  PRO E1031      75.413  -1.529 165.161  1.00 15.56 LIG 0.04  C 
ATOM     35 O    ALA E1030      79.192  -3.108 165.473  1.00 13.62 LIG-0.27  OA
BRANCH 32 36
ATOM     36  C   PRO E1031      76.500  -2.391 167.283  1.00 15.62 LIG 0.24  C 
ATOM     37  N   VAL E1032      77.617  -2.616 167.945  1.00 15.06 LIG-0.35  N 
ATOM     38 H    VAL E1032      78.405  -2.454 167.640  1.00 15.06 LIG 0.16  HD
ATOM     39 O    PRO E1031      75.378  -2.511 167.784  1.00 15.42 LIG-0.27  OA
BRANCH 37 40
ATOM     40  CA  VAL E1032      77.584  -3.167 169.263  1.00 17.90 LIG 0.17  C 
BRANCH 40 41
ATOM     41  C   VAL E1032      77.587  -2.003 170.306  1.00 17.55 LIG 0.22  C 
ATOM     42 O    VAL E1032      76.508  -1.402 170.475  1.00 19.34 LIG-0.29  OA
ENDBRANCH 40 41
BRANCH 40 43
ATOM     43  CB  VAL E1032      78.735  -4.166 169.461  1.00 18.34 LIG 0.01  C 
ATOM     44  CG2 VAL E1032      78.646  -5.302 168.446  1.00 18.91 LIG 0.01  C 
ATOM     45  CG1 VAL E1032      78.712  -4.771 170.843  1.00 20.19 LIG 0.01  C 
ENDBRANCH 40 43
ENDBRANCH 37 40
ENDBRANCH 32 36
ENDBRANCH 27 29
ENDBRANCH 3 27
TORSDOF 15
ENDMDL
MODEL 2
USER: ADFR SOLUTION from run 60
USER: SCORE 14.637854 LL:  -3.109 LR: -13.174 RR:   0.000 FEB:  -8.700
USER: RMSD 1.749279
USER: SEED 59
USER: STATUS searching
USER: GENES 17
USER: genes 0 Translation |==|  0.44580 0.34584 0.44735
USER: genes 1 Rotation |==|  0.50463 0.49478 0.50897 0.99987
USER: genes 2 Torsion [N]-C--CA-[N] |==|  0.86860
USER: genes 3 Torsion [C]-CA--CB-[OG] |==|  0.70953
USER: genes 4 Torsion [CA]-CB--OG-[HG] |==|  0.47084
USER: genes 5 Torsion [C]-CA--N-[C] |==|  0.83389
USER: genes 6 Torsion [N]-C--CA-[N] |==|  0.26489
USER: genes 7 Torsion [C]-CA--N-[C] |==|  0.81111
USER: genes 8 Torsion [N]-C--CA-[N] |==|  0.41588
USER: genes 9 Torsion [C]-CA--CB-[CG] |==|  0.75176
USER: genes 10 Torsion [CA]-CB--CG-[ND2] |==|  0.13162
USER: genes 11 Torsion [C]-N--CA-[CB] |==|  0.24084
USER: genes 12 Torsion [N]-CA--C-[N] |==|  0.44164
USER: genes 13 Torsion [N]-CA--C-[N] |==|  0.13035
USER: genes 14 Torsion [C]-N--CA-[C] |==|  0.83829
USER: genes 15 Torsion [N]-CA--C-[O] |==|  0.29464
USER: genes 16 Torsion [N]-CA--CB-[CG2] |==|  0.83331
ROOT
ATOM      1  C   SER E1029      80.655  -6.080 162.631  1.00 13.48 LIG 0.24  C 
ATOM      2 O    SER E1029      79.877  -6.675 161.905  1.00 12.15 LIG-0.27  OA
ATOM      3  N   ALA E1030      80.247  -5.270 163.624  1.00 12.52 LIG-0.35  N 
ATOM      4 H    ALA E1030      80.775  -4.788 164.102  1.00 12.52 LIG 0.16  HD
ENDROOT
BRANCH 1 5
ATOM      5  CA  SER E1029      82.148  -6.201 162.432  1.00 13.36 LIG 0.20  C 
BRANCH 5 6
ATOM      6  CB  SER E1029      82.750  -7.026 163.562  1.00 14.53 LIG 0.20  C 
BRANCH 6 7
ATOM      7 OG   SER E1029      83.428  -6.156 164.477  1.00 16.05 LIG-0.40  OA
ATOM      8 HG   SER E1029      83.636  -6.584 165.170  1.00 16.05 LIG 0.21  HD
ENDBRANCH 6 7
ENDBRANCH 5 6
BRANCH 5 9
ATOM      9  N   SER E1029      82.779  -4.881 162.428  1.00 13.57 LIG-0.34  N 
ATOM     10 H    SER E1029      83.370  -4.765 163.041  1.00 13.57 LIG 0.16  HD
ATOM     11  C   ALA E1028      82.440  -3.955 161.530  1.00 13.26 LIG 0.24  C 
ATOM     12 O    ALA E1028      81.497  -4.074 160.776  1.00 11.29 LIG-0.27  OA
BRANCH 11 13
ATOM     13  CA  ALA E1028      83.316  -2.700 161.478  1.00 14.25 LIG 0.17  C 
ATOM     14  CB  ALA E1028      82.445  -1.468 161.237  1.00 14.71 LIG 0.04  C 
BRANCH 13 15
ATOM     15  N   ALA E1028      84.343  -2.834 160.442  1.00 14.53 LIG-0.35  N 
ATOM     16 H    ALA E1028      84.243  -2.304 159.772  1.00 14.53 LIG 0.16  HD
ATOM     17  C   ASN E1027      85.330  -3.705 160.554  1.00 16.30 LIG 0.26  C 
ATOM     18 O    ASN E1027      85.409  -4.502 161.528  1.00 15.77 LIG-0.27  OA
BRANCH 17 19
ATOM     19  CA  ASN E1027      86.355  -3.699 159.406  1.00 16.82 LIG 0.41  C 
ATOM     20  N   ASN E1027      87.730  -4.094 159.840  1.00 18.81 LIG 0.61  N 
BRANCH 19 21
ATOM     21  CB  ASN E1027      85.958  -4.668 158.251  1.00 15.29 LIG 0.15  C 
BRANCH 21 22
ATOM     22  CG  ASN E1027      86.502  -6.083 158.444  1.00 13.40 LIG 0.22  C 
ATOM     23 OD1  ASN E1027      87.131  -6.665 157.552  1.00 12.35 LIG-0.27  OA
ATOM     24  ND2 ASN E1027      86.321  -6.606 159.651  1.00 11.10 LIG-0.37  N 
ATOM     25 22HD ASN E1027      85.877  -6.171 160.246  1.00 11.10 LIG 0.16  HD
ATOM     26 21HD ASN E1027      86.647  -7.379 159.839  1.00 11.10 LIG 0.16  HD
ENDBRANCH 21 22
ENDBRANCH 19 21
ENDBRANCH 17 19
ENDBRANCH 13 15
ENDBRANCH 11 13
ENDBRANCH 5 9
ENDBRANCH 1 5
BRANCH 3 27
ATOM     27  CA  ALA E1030      78.840  -5.151 163.968  1.00 12.56 LIG 0.17  C 
ATOM     28  CB  ALA E1030      78.499  -6.263 164.971  1.00 12.51 LIG 0.04  C 
BRANCH 27 29
ATOM     29  C   ALA E1030      78.565  -3.743 164.608  1.00 13.31 LIG 0.24  C 
ATOM     30  N   PRO E1031      77.340  -3.276 164.603  1.00 14.65 LIG-0.34  N 
ATOM     31  CD  PRO E1031      76.172  -3.891 163.952  1.00 15.56 LIG 0.13  C 
ATOM     32  CA  PRO E1031      76.973  -2.016 165.325  1.00 16.02 LIG 0.18  C 
ATOM     33  CG  PRO E1031      75.067  -2.942 164.262  1.00 15.81 LIG 0.02  C 
ATOM     34  CB  PRO E1031      75.708  -1.620 164.631  1.00 15.56 LIG 0.04  C 
ATOM     35 O    ALA E1030      79.462  -3.188 165.193  1.00 13.62 LIG-0.27  OA
BRANCH 32 36
ATOM     36  C   PRO E1031      76.743  -2.253 166.857  1.00 15.62 LIG 0.24  C 
ATOM     37  N   VAL E1032      77.675  -2.971 167.451  1.00 15.06 LIG-0.35  N 
ATOM     38 H    VAL E1032      78.416  -3.208 167.083  1.00 15.06 LIG 0.16  HD
ATOM     39 O    PRO E1031      75.747  -1.816 167.440  1.00 15.42 LIG-0.27  OA
BRANCH 37 40
ATOM     40  CA  VAL E1032      77.503  -3.416 168.798  1.00 17.90 LIG 0.17  C 
BRANCH 40 41
ATOM     41  C   VAL E1032      77.290  -2.175 169.725  1.00 17.55 LIG 0.22  C 
ATOM     42 O    VAL E1032      76.132  -1.983 170.143  1.00 19.34 LIG-0.29  OA
ENDBRANCH 40 41
BRANCH 40 43
ATOM     43  CB  VAL E1032      78.681  -4.304 169.229  1.00 18.34 LIG 0.01  C 
ATOM     44  CG2 VAL E1032      78.789  -5.532 168.331  1.00 18.91 LIG 0.01  C 
ATOM     45  CG1 VAL E1032      78.526  -4.777 170.652  1.00 20.19 LIG 0.01  C 
ENDBRANCH 40 43
ENDBRANCH 37 40
ENDBRANCH 32 36
ENDBRANCH 27 29
ENDBRANCH 3 27
TORSDOF 15
ENDMDL
MODEL 3
USER: ADFR SOLUTION from run 55
USER: SCORE 13.411097 LL:  -2.575 LR: -12.798 RR:   0.000 FEB:  -8.324
USER: RMSD 2.702829
USER: SEED 54
USER: STATUS no improvement in best in 3 clusters for 5 generations
USER: GENES 17
USER: genes 0 Translation |==|  0.44735 0.34224 0.44783
USER: genes 1 Rotation |==|  0.54293 0.47362 0.48995 0.99735
USER: genes 2 Torsion [N]-C--CA-[N] |==|  0.81152
USER: genes 3 Torsion [C]-CA--CB-[OG] |==|  0.56739
USER: genes 4 Torsion [CA]-CB--OG-[HG] |==|  0.48903
USER: genes 5 Torsion [C]-CA--N-[C] |==|  0.60565
USER: genes 6 Torsion [N]-C--CA-[N] |==|  0.41422
USER: genes 7 Torsion [C]-CA--N-[C] |==|  0.55739
USER: genes 8 Torsion [N]-C--CA-[N] |==|  0.33871
USER: genes 9 Torsion [C]-CA--CB-[CG] |==|  0.23742
USER: genes 10 Torsion [CA]-CB--CG-[ND2] |==|  0.88630
USER: genes 11 Torsion [C]-N--CA-[CB] |==|  0.26110
USER: genes 12 Torsion [N]-CA--C-[N] |==|  0.44303
USER: genes 13 Torsion [N]-CA--C-[N] |==|  0.17193
USER: genes 14 Torsion [C]-N--CA-[C] |==|  0.79525
USER: genes 15 Torsion [N]-CA--C-[O] |==|  0.27303
USER: genes 16 Torsion [N]-CA--CB-[CG2] |==|  0.83263
ROOT
ATOM      1  C   SER E1029      80.687  -6.137 162.641  1.00 13.48 LIG 0.24  C 
ATOM      2 O    SER E1029      79.936  -6.550 161.775  1.00 12.15 LIG-0.27  OA
ATOM      3  N   ALA E1030      80.250  -5.457 163.717  1.00 12.52 LIG-0.35  N 
ATOM      4 H    ALA E1030      80.767  -5.097 164.303  1.00 12.52 LIG 0.16  HD
ENDROOT
BRANCH 1 5
ATOM      5  CA  SER E1029      82.179  -6.346 162.539  1.00 13.36 LIG 0.20  C 
BRANCH 5 6
ATOM      6  CB  SER E1029      82.702  -6.952 163.836  1.00 14.53 LIG 0.20  C 
BRANCH 6 7
ATOM      7 OG   SER E1029      84.093  -6.638 163.980  1.00 16.05 LIG-0.40  OA
ATOM      8 HG   SER E1029      84.370  -6.924 164.720  1.00 16.05 LIG 0.21  HD
ENDBRANCH 6 7
ENDBRANCH 5 6
BRANCH 5 9
ATOM      9  N   SER E1029      82.866  -5.077 162.303  1.00 13.57 LIG-0.34  N 
ATOM     10 H    SER E1029      82.535  -4.407 162.728  1.00 13.57 LIG 0.16  HD
ATOM     11  C   ALA E1028      83.919  -5.000 161.488  1.00 13.26 LIG 0.24  C 
ATOM     12 O    ALA E1028      84.276  -5.914 160.775  1.00 11.29 LIG-0.27  OA
BRANCH 11 13
ATOM     13  CA  ALA E1028      84.691  -3.677 161.491  1.00 14.25 LIG 0.17  C 
ATOM     14  CB  ALA E1028      84.070  -2.712 160.482  1.00 14.71 LIG 0.04  C 
BRANCH 13 15
ATOM     15  N   ALA E1028      86.108  -3.909 161.201  1.00 14.53 LIG-0.35  N 
ATOM     16 H    ALA E1028      86.272  -4.654 160.805  1.00 14.53 LIG 0.16  HD
ATOM     17  C   ASN E1027      87.035  -3.028 161.532  1.00 16.30 LIG 0.26  C 
ATOM     18 O    ASN E1027      86.758  -1.972 162.162  1.00 15.77 LIG-0.27  OA
BRANCH 17 19
ATOM     19  CA  ASN E1027      88.474  -3.392 161.123  1.00 16.82 LIG 0.41  C 
ATOM     20  N   ASN E1027      89.113  -2.369 160.241  1.00 18.81 LIG 0.61  N 
BRANCH 19 21
ATOM     21  CB  ASN E1027      89.414  -3.567 162.354  1.00 15.29 LIG 0.15  C 
BRANCH 21 22
ATOM     22  CG  ASN E1027      89.362  -4.973 162.952  1.00 13.40 LIG 0.22  C 
ATOM     23 OD1  ASN E1027      90.372  -5.527 163.401  1.00 12.35 LIG-0.27  OA
ATOM     24  ND2 ASN E1027      88.153  -5.518 163.026  1.00 11.10 LIG-0.37  N 
ATOM     25 22HD ASN E1027      87.473  -5.102 162.703  1.00 11.10 LIG 0.16  HD
ATOM     26 21HD ASN E1027      88.049  -6.287 163.398  1.00 11.10 LIG 0.16  HD
ENDBRANCH 21 22
ENDBRANCH 19 21
ENDBRANCH 17 19
ENDBRANCH 13 15
ENDBRANCH 11 13
ENDBRANCH 5 9
ENDBRANCH 1 5
BRANCH 3 27
ATOM     27  CA  ALA E1030      78.830  -5.277 163.968  1.00 12.56 LIG 0.17  C 
ATOM     28  CB  ALA E1030      78.367  -6.400 164.908  1.00 12.51 LIG 0.04  C 
BRANCH 27 29
ATOM     29  C   ALA E1030      78.580  -3.878 164.635  1.00 13.31 LIG 0.24  C 
ATOM     30  N   PRO E1031      77.379  -3.354 164.572  1.00 14.65 LIG-0.34  N 
ATOM     31  CD  PRO E1031      76.227  -3.895 163.832  1.00 15.56 LIG 0.13  C 
ATOM     32  CA  PRO E1031      77.025  -2.100 165.309  1.00 16.02 LIG 0.18  C 
ATOM     33  CG  PRO E1031      75.149  -2.905 164.105  1.00 15.81 LIG 0.02  C 
ATOM     34  CB  PRO E1031      75.824  -1.625 164.554  1.00 15.56 LIG 0.04  C 
ATOM     35 O    ALA E1030      79.462  -3.381 165.289  1.00 13.62 LIG-0.27  OA
BRANCH 32 36
ATOM     36  C   PRO E1031      76.692  -2.370 166.817  1.00 15.62 LIG 0.24  C 
ATOM     37  N   VAL E1032      77.685  -2.876 167.520  1.00 15.06 LIG-0.35  N 
ATOM     38 H    VAL E1032      78.492  -2.956 167.234  1.00 15.06 LIG 0.16  HD
ATOM     39 O    PRO E1031      75.572  -2.145 167.285  1.00 15.42 LIG-0.27  OA
BRANCH 37 40
ATOM     40  CA  VAL E1032      77.469  -3.339 168.854  1.00 17.90 LIG 0.17  C 
BRANCH 40 41
ATOM     41  C   VAL E1032      77.297  -2.108 169.803  1.00 17.55 LIG 0.22  C 
ATOM     42 O    VAL E1032      76.128  -1.780 170.086  1.00 19.34 LIG-0.29  OA
ENDBRANCH 40 41
BRANCH 40 43
ATOM     43  CB  VAL E1032      78.597  -4.288 169.287  1.00 18.34 LIG 0.01  C 
ATOM     44  CG2 VAL E1032      78.660  -5.506 168.370  1.00 18.91 LIG 0.01  C 
ATOM     45  CG1 VAL E1032      78.399  -4.777 170.700  1.00 20.19 LIG 0.01  C 
ENDBRANCH 40 43
ENDBRANCH 37 40
ENDBRANCH 32 36
ENDBRANCH 27 29
ENDBRANCH 3 27
TORSDOF 15
ENDMDL
MODEL 4
USER: ADFR SOLUTION from run 20
USER: SCORE 13.932284 LL:  -2.823 LR: -12.430 RR:   0.000 FEB:  -7.956
USER: RMSD 3.107930
USER: SEED 19
USER: STATUS no improvement in best in 7 clusters for 5 generations
USER: GENES 17
USER: genes 0 Translation |==|  0.44938 0.37762 0.43968
USER: genes 1 Rotation |==|  0.46508 0.52534 0.56869 0.99338
USER: genes 2 Torsion [N]-C--CA-[N] |==|  0.07246
USER: genes 3 Torsion [C]-CA--CB-[OG] |==|  0.44872
USER: genes 4 Torsion [CA]-CB--OG-[HG] |==|  0.30218
USER: genes 5 Torsion [C]-CA--N-[C] |==|  0.16123
USER: genes 6 Torsion [N]-C--CA-[N] |==|  0.90457
USER: genes 7 Torsion [C]-CA--N-[C] |==|  0.83414
USER: genes 8 Torsion [N]-C--CA-[N] |==|  0.06433
USER: genes 9 Torsion [C]-CA--CB-[CG] |==|  0.20568
USER: genes 10 Torsion [CA]-CB--CG-[ND2] |==|  0.97956
USER: genes 11 Torsion [C]-N--CA-[CB] |==|  0.21345
USER: genes 12 Torsion [N]-CA--C-[N] |==|  0.42401
USER: genes 13 Torsion [N]-CA--C-[N] |==|  0.13942
USER: genes 14 Torsion [C]-N--CA-[C] |==|  0.80834
USER: genes 15 Torsion [N]-CA--C-[O] |==|  0.26164
USER: genes 16 Torsion [N]-CA--CB-[CG2] |==|  0.82973
ROOT
ATOM      1  C   SER E1029      80.728  -5.579 162.464  1.00 13.48 LIG 0.24  C 
ATOM      2 O    SER E1029      80.054  -6.453 161.945  1.00 12.15 LIG-0.27  OA
ATOM      3  N   ALA E1030      80.231  -4.722 163.374  1.00 12.52 LIG-0.35  N 
ATOM      4 H    ALA E1030      80.668  -4.058 163.700  1.00 12.52 LIG 0.16  HD
ENDROOT
BRANCH 1 5
ATOM      5  CA  SER E1029      82.178  -5.392 162.086  1.00 13.36 LIG 0.20  C 
BRANCH 5 6
ATOM      6  CB  SER E1029      82.811  -6.747 161.795  1.00 14.53 LIG 0.20  C 
BRANCH 6 7
ATOM      7 OG   SER E1029      84.014  -6.557 161.039  1.00 16.05 LIG-0.40  OA
ATOM      8 HG   SER E1029      84.679  -6.725 161.523  1.00 16.05 LIG 0.21  HD
ENDBRANCH 6 7
ENDBRANCH 5 6
BRANCH 5 9
ATOM      9  N   SER E1029      82.919  -4.752 163.172  1.00 13.57 LIG-0.34  N 
ATOM     10 H    SER E1029      83.302  -4.013 162.957  1.00 13.57 LIG 0.16  HD
ATOM     11  C   ALA E1028      82.974  -5.297 164.388  1.00 13.26 LIG 0.24  C 
ATOM     12 O    ALA E1028      82.567  -6.413 164.635  1.00 11.29 LIG-0.27  OA
BRANCH 11 13
ATOM     13  CA  ALA E1028      83.584  -4.435 165.497  1.00 14.25 LIG 0.17  C 
ATOM     14  CB  ALA E1028      82.496  -3.585 166.150  1.00 14.71 LIG 0.04  C 
BRANCH 13 15
ATOM     15  N   ALA E1028      84.661  -3.598 164.962  1.00 14.53 LIG-0.35  N 
ATOM     16 H    ALA E1028      84.535  -2.753 165.057  1.00 14.53 LIG 0.16  HD
ATOM     17  C   ASN E1027      85.727  -4.126 164.387  1.00 16.30 LIG 0.26  C 
ATOM     18 O    ASN E1027      85.847  -5.369 164.218  1.00 15.77 LIG-0.27  OA
BRANCH 17 19
ATOM     19  CA  ASN E1027      86.792  -3.121 163.913  1.00 16.82 LIG 0.41  C 
ATOM     20  N   ASN E1027      86.734  -1.813 164.636  1.00 18.81 LIG 0.61  N 
BRANCH 19 21
ATOM     21  CB  ASN E1027      88.242  -3.664 164.094  1.00 15.29 LIG 0.15  C 
BRANCH 21 22
ATOM     22  CG  ASN E1027      88.612  -4.737 163.071  1.00 13.40 LIG 0.22  C 
ATOM     23 OD1  ASN E1027      89.745  -5.230 163.026  1.00 12.35 LIG-0.27  OA
ATOM     24  ND2 ASN E1027      87.618  -5.152 162.293  1.00 11.10 LIG-0.37  N 
ATOM     25 22HD ASN E1027      86.843  -4.784 162.353  1.00 11.10 LIG 0.16  HD
ATOM     26 21HD ASN E1027      87.749  -5.789 161.731  1.00 11.10 LIG 0.16  HD
ENDBRANCH 21 22
ENDBRANCH 19 21
ENDBRANCH 17 19
ENDBRANCH 13 15
ENDBRANCH 11 13
ENDBRANCH 5 9
ENDBRANCH 1 5
BRANCH 3 27
ATOM     27  CA  ALA E1030      78.877  -4.867 163.883  1.00 12.56 LIG 0.17  C 
ATOM     28  CB  ALA E1030      78.872  -6.013 164.904  1.00 12.51 LIG 0.04  C 
BRANCH 27 29
ATOM     29  C   ALA E1030      78.421  -3.530 164.569  1.00 13.31 LIG 0.24  C 
ATOM     30  N   PRO E1031      77.142  -3.242 164.603  1.00 14.65 LIG-0.34  N 
ATOM     31  CD  PRO E1031      76.057  -4.001 163.957  1.00 15.56 LIG 0.13  C 
ATOM     32  CA  PRO E1031      76.617  -2.067 165.368  1.00 16.02 LIG 0.18  C 
ATOM     33  CG  PRO E1031      74.837  -3.227 164.317  1.00 15.81 LIG 0.02  C 
ATOM     34  CB  PRO E1031      75.292  -1.837 164.712  1.00 15.56 LIG 0.04  C 
ATOM     35 O    ALA E1030      79.243  -2.867 165.151  1.00 13.62 LIG-0.27  OA
BRANCH 32 36
ATOM     36  C   PRO E1031      76.460  -2.374 166.897  1.00 15.62 LIG 0.24  C 
ATOM     37  N   VAL E1032      77.524  -2.905 167.465  1.00 15.06 LIG-0.35  N 
ATOM     38 H    VAL E1032      78.291  -2.984 167.085  1.00 15.06 LIG 0.16  HD
ATOM     39 O    PRO E1031      75.406  -2.153 167.500  1.00 15.42 LIG-0.27  OA
BRANCH 37 40
ATOM     40  CA  VAL E1032      77.462  -3.401 168.804  1.00 17.90 LIG 0.17  C 
BRANCH 40 41
ATOM     41  C   VAL E1032      77.294  -2.199 169.789  1.00 17.55 LIG 0.22  C 
ATOM     42 O    VAL E1032      76.128  -1.907 170.121  1.00 19.34 LIG-0.29  OA
ENDBRANCH 40 41
BRANCH 40 43
ATOM     43  CB  VAL E1032      78.686  -4.277 169.114  1.00 18.34 LIG 0.01  C 
ATOM     44  CG2 VAL E1032      78.734  -5.487 168.187  1.00 18.91 LIG 0.01  C 
ATOM     45  CG1 VAL E1032      78.663  -4.777 170.536  1.00 20.19 LIG 0.01  C 
ENDBRANCH 40 43
ENDBRANCH 37 40
ENDBRANCH 32 36
ENDBRANCH 27 29
ENDBRANCH 3 27
TORSDOF 15
ENDMDL
MODEL 5
USER: ADFR SOLUTION from run 49
USER: SCORE 13.223817 LL:  -2.866 LR: -11.929 RR:   0.000 FEB:  -7.454
USER: RMSD 3.316736
USER: SEED 48
USER: STATUS no improvement in best in 3 clusters for 5 generations
USER: GENES 17
USER: genes 0 Translation |==|  0.44440 0.36641 0.44014
USER: genes 1 Rotation |==|  0.53202 0.49830 0.52599 0.99829
USER: genes 2 Torsion [N]-C--CA-[N] |==|  0.93576
USER: genes 3 Torsion [C]-CA--CB-[OG] |==|  0.80254
USER: genes 4 Torsion [CA]-CB--OG-[HG] |==|  0.30338
USER: genes 5 Torsion [C]-CA--N-[C] |==|  0.74033
USER: genes 6 Torsion [N]-C--CA-[N] |==|  0.18333
USER: genes 7 Torsion [C]-CA--N-[C] |==|  0.77988
USER: genes 8 Torsion [N]-C--CA-[N] |==|  0.80313
USER: genes 9 Torsion [C]-CA--CB-[CG] |==|  0.26098
USER: genes 10 Torsion [CA]-CB--CG-[ND2] |==|  0.72170
USER: genes 11 Torsion [C]-N--CA-[CB] |==|  0.25842
USER: genes 12 Torsion [N]-CA--C-[N] |==|  0.44034
USER: genes 13 Torsion [N]-CA--C-[N] |==|  0.14788
USER: genes 14 Torsion [C]-N--CA-[C] |==|  0.80268
USER: genes 15 Torsion [N]-CA--C-[O] |==|  0.27361
USER: genes 16 Torsion [N]-CA--CB-[CG2] |==|  0.83305
ROOT
ATOM      1  C   SER E1029      80.627  -5.756 162.474  1.00 13.48 LIG 0.24  C 
ATOM      2 O    SER E1029      79.878  -6.323 161.697  1.00 12.15 LIG-0.27  OA
ATOM      3  N   ALA E1030      80.183  -5.089 163.554  1.00 12.52 LIG-0.35  N 
ATOM      4 H    ALA E1030      80.686  -4.625 164.076  1.00 12.52 LIG 0.16  HD
ENDROOT
BRANCH 1 5
ATOM      5  CA  SER E1029      82.121  -5.750 162.246  1.00 13.36 LIG 0.20  C 
BRANCH 5 6
ATOM      6  CB  SER E1029      82.730  -7.027 162.811  1.00 14.53 LIG 0.20  C 
BRANCH 6 7
ATOM      7 OG   SER E1029      82.692  -6.978 164.243  1.00 16.05 LIG-0.40  OA
ATOM      8 HG   SER E1029      82.124  -7.528 164.527  1.00 16.05 LIG 0.21  HD
ENDBRANCH 6 7
ENDBRANCH 5 6
BRANCH 5 9
ATOM      9  N   SER E1029      82.741  -4.602 162.907  1.00 13.57 LIG-0.34  N 
ATOM     10 H    SER E1029      82.950  -4.733 163.730  1.00 13.57 LIG 0.16  HD
ATOM     11  C   ALA E1028      82.950  -3.457 162.254  1.00 13.26 LIG 0.24  C 
ATOM     12 O    ALA E1028      82.507  -3.233 161.147  1.00 11.29 LIG-0.27  OA
BRANCH 11 13
ATOM     13  CA  ALA E1028      83.802  -2.407 162.972  1.00 14.25 LIG 0.17  C 
ATOM     14  CB  ALA E1028      83.759  -1.089 162.202  1.00 14.71 LIG 0.04  C 
BRANCH 13 15
ATOM     15  N   ALA E1028      85.178  -2.884 163.131  1.00 14.53 LIG-0.35  N 
ATOM     16 H    ALA E1028      85.734  -2.562 162.558  1.00 14.53 LIG 0.16  HD
ATOM     17  C   ASN E1027      85.510  -3.737 164.083  1.00 16.30 LIG 0.26  C 
ATOM     18 O    ASN E1027      84.653  -4.228 164.867  1.00 15.77 LIG-0.27  OA
BRANCH 17 19
ATOM     19  CA  ASN E1027      87.002  -4.113 164.149  1.00 16.82 LIG 0.41  C 
ATOM     20  N   ASN E1027      87.444  -4.976 163.011  1.00 18.81 LIG 0.61  N 
BRANCH 19 21
ATOM     21  CB  ASN E1027      87.929  -2.860 164.143  1.00 15.29 LIG 0.15  C 
BRANCH 21 22
ATOM     22  CG  ASN E1027      88.312  -2.392 165.547  1.00 13.40 LIG 0.22  C 
ATOM     23 OD1  ASN E1027      89.251  -2.902 166.169  1.00 12.35 LIG-0.27  OA
ATOM     24  ND2 ASN E1027      87.622  -1.357 166.013  1.00 11.10 LIG-0.37  N 
ATOM     25 22HD ASN E1027      86.975  -1.029 165.551  1.00 11.10 LIG 0.16  HD
ATOM     26 21HD ASN E1027      87.822  -1.015 166.776  1.00 11.10 LIG 0.16  HD
ENDBRANCH 21 22
ENDBRANCH 19 21
ENDBRANCH 17 19
ENDBRANCH 13 15
ENDBRANCH 11 13
ENDBRANCH 5 9
ENDBRANCH 1 5
BRANCH 3 27
ATOM     27  CA  ALA E1030      78.779  -5.106 163.925  1.00 12.56 LIG 0.17  C 
ATOM     28  CB  ALA E1030      78.565  -6.246 164.931  1.00 12.51 LIG 0.04  C 
BRANCH 27 29
ATOM     29  C   ALA E1030      78.381  -3.732 164.574  1.00 13.31 LIG 0.24  C 
ATOM     30  N   PRO E1031      77.118  -3.381 164.586  1.00 14.65 LIG-0.34  N 
ATOM     31  CD  PRO E1031      76.004  -4.101 163.946  1.00 15.56 LIG 0.13  C 
ATOM     32  CA  PRO E1031      76.644  -2.163 165.316  1.00 16.02 LIG 0.18  C 
ATOM     33  CG  PRO E1031      74.820  -3.260 164.273  1.00 15.81 LIG 0.02  C 
ATOM     34  CB  PRO E1031      75.339  -1.885 164.640  1.00 15.56 LIG 0.04  C 
ATOM     35 O    ALA E1030      79.229  -3.097 165.150  1.00 13.62 LIG-0.27  OA
BRANCH 32 36
ATOM     36  C   PRO E1031      76.456  -2.425 166.850  1.00 15.62 LIG 0.24  C 
ATOM     37  N   VAL E1032      77.508  -2.935 167.456  1.00 15.06 LIG-0.35  N 
ATOM     38 H    VAL E1032      78.284  -3.023 167.095  1.00 15.06 LIG 0.16  HD
ATOM     39 O    PRO E1031      75.388  -2.190 167.424  1.00 15.42 LIG-0.27  OA
BRANCH 37 40
ATOM     40  CA  VAL E1032      77.419  -3.392 168.808  1.00 17.90 LIG 0.17  C 
BRANCH 40 41
ATOM     41  C   VAL E1032      77.280  -2.158 169.758  1.00 17.55 LIG 0.22  C 
ATOM     42 O    VAL E1032      76.128  -1.872 170.137  1.00 19.34 LIG-0.29  OA
ENDBRANCH 40 41
BRANCH 40 43
ATOM     43  CB  VAL E1032      78.613  -4.296 169.154  1.00 18.34 LIG 0.01  C 
ATOM     44  CG2 VAL E1032      78.649  -5.517 168.241  1.00 18.91 LIG 0.01  C 
ATOM     45  CG1 VAL E1032      78.548  -4.779 170.581  1.00 20.19 LIG 0.01  C 
ENDBRANCH 40 43
ENDBRANCH 37 40
ENDBRANCH 32 36
ENDBRANCH 27 29
ENDBRANCH 3 27
TORSDOF 15
ENDMDL
MODEL 6
USER: ADFR SOLUTION from run 70
USER: SCORE 13.220293 LL:  -2.952 LR: -11.517 RR:   0.000 FEB:  -7.043
USER: RMSD 1.331819
USER: SEED 69
USER: STATUS no improvement in best in 7 clusters for 5 generations
USER: GENES 17
USER: genes 0 Translation |==|  0.44435 0.36948 0.44165
USER: genes 1 Rotation |==|  0.52766 0.49870 0.52702 0.99850
USER: genes 2 Torsion [N]-C--CA-[N] |==|  0.88973
USER: genes 3 Torsion [C]-CA--CB-[OG] |==|  0.74522
USER: genes 4 Torsion [CA]-CB--OG-[HG] |==|  0.52403
USER: genes 5 Torsion [C]-CA--N-[C] |==|  0.79514
USER: genes 6 Torsion [N]-C--CA-[N] |==|  0.42202
USER: genes 7 Torsion [C]-CA--N-[C] |==|  0.79807
USER: genes 8 Torsion [N]-C--CA-[N] |==|  0.18187
USER: genes 9 Torsion [C]-CA--CB-[CG] |==|  0.43676
USER: genes 10 Torsion [CA]-CB--CG-[ND2] |==|  0.32323
USER: genes 11 Torsion [C]-N--CA-[CB] |==|  0.25416
USER: genes 12 Torsion [N]-CA--C-[N] |==|  0.43919
USER: genes 13 Torsion [N]-CA--C-[N] |==|  0.14987
USER: genes 14 Torsion [C]-N--CA-[C] |==|  0.79951
USER: genes 15 Torsion [N]-CA--C-[O] |==|  0.26722
USER: genes 16 Torsion [N]-CA--CB-[CG2] |==|  0.83200
ROOT
ATOM      1  C   SER E1029      80.626  -5.708 162.507  1.00 13.48 LIG 0.24  C 
ATOM      2 O    SER E1029      79.879  -6.291 161.740  1.00 12.15 LIG-0.27  OA
ATOM      3  N   ALA E1030      80.180  -5.023 163.576  1.00 12.52 LIG-0.35  N 
ATOM      4 H    ALA E1030      80.681  -4.549 164.089  1.00 12.52 LIG 0.16  HD
ENDROOT
BRANCH 1 5
ATOM      5  CA  SER E1029      82.119  -5.699 162.278  1.00 13.36 LIG 0.20  C 
BRANCH 5 6
ATOM      6  CB  SER E1029      82.784  -6.719 163.195  1.00 14.53 LIG 0.20  C 
BRANCH 6 7
ATOM      7 OG   SER E1029      83.167  -6.079 164.418  1.00 16.05 LIG-0.40  OA
ATOM      8 HG   SER E1029      83.637  -6.605 164.875  1.00 16.05 LIG 0.21  HD
ENDBRANCH 6 7
ENDBRANCH 5 6
BRANCH 5 9
ATOM      9  N   SER E1029      82.679  -4.378 162.562  1.00 13.57 LIG-0.34  N 
ATOM     10 H    SER E1029      83.126  -4.329 163.295  1.00 13.57 LIG 0.16  HD
ATOM     11  C   ALA E1028      82.492  -3.354 161.729  1.00 13.26 LIG 0.24  C 
ATOM     12 O    ALA E1028      81.731  -3.394 160.786  1.00 11.29 LIG-0.27  OA
BRANCH 11 13
ATOM     13  CA  ALA E1028      83.305  -2.087 162.010  1.00 14.25 LIG 0.17  C 
ATOM     14  CB  ALA E1028      82.581  -1.224 163.042  1.00 14.71 LIG 0.04  C 
BRANCH 13 15
ATOM     15  N   ALA E1028      83.542  -1.343 160.771  1.00 14.53 LIG-0.35  N 
ATOM     16 H    ALA E1028      83.084  -0.619 160.697  1.00 14.53 LIG 0.16  HD
ATOM     17  C   ASN E1027      84.395  -1.773 159.858  1.00 16.30 LIG 0.26  C 
ATOM     18 O    ASN E1027      85.005  -2.870 159.979  1.00 15.77 LIG-0.27  OA
BRANCH 17 19
ATOM     19  CA  ASN E1027      84.568  -0.862 158.629  1.00 16.82 LIG 0.41  C 
ATOM     20  N   ASN E1027      85.184   0.460 158.957  1.00 18.81 LIG 0.61  N 
BRANCH 19 21
ATOM     21  CB  ASN E1027      85.466  -1.511 157.532  1.00 15.29 LIG 0.15  C 
BRANCH 21 22
ATOM     22  CG  ASN E1027      85.221  -0.932 156.139  1.00 13.40 LIG 0.22  C 
ATOM     23 OD1  ASN E1027      84.112  -0.993 155.595  1.00 12.35 LIG-0.27  OA
ATOM     24  ND2 ASN E1027      86.253  -0.298 155.594  1.00 11.10 LIG-0.37  N 
ATOM     25 22HD ASN E1027      87.010  -0.277 156.002  1.00 11.10 LIG 0.16  HD
ATOM     26 21HD ASN E1027      86.165   0.093 154.832  1.00 11.10 LIG 0.16  HD
ENDBRANCH 21 22
ENDBRANCH 19 21
ENDBRANCH 17 19
ENDBRANCH 13 15
ENDBRANCH 11 13
ENDBRANCH 5 9
ENDBRANCH 1 5
BRANCH 3 27
ATOM     27  CA  ALA E1030      78.775  -5.040 163.947  1.00 12.56 LIG 0.17  C 
ATOM     28  CB  ALA E1030      78.560  -6.188 164.944  1.00 12.51 LIG 0.04  C 
BRANCH 27 29
ATOM     29  C   ALA E1030      78.382  -3.671 164.608  1.00 13.31 LIG 0.24  C 
ATOM     30  N   PRO E1031      77.121  -3.312 164.616  1.00 14.65 LIG-0.34  N 
ATOM     31  CD  PRO E1031      76.007  -4.019 163.962  1.00 15.56 LIG 0.13  C 
ATOM     32  CA  PRO E1031      76.650  -2.099 165.356  1.00 16.02 LIG 0.18  C 
ATOM     33  CG  PRO E1031      74.825  -3.175 164.291  1.00 15.81 LIG 0.02  C 
ATOM     34  CB  PRO E1031      75.350  -1.806 164.675  1.00 15.56 LIG 0.04  C 
ATOM     35 O    ALA E1030      79.230  -3.046 165.195  1.00 13.62 LIG-0.27  OA
BRANCH 32 36
ATOM     36  C   PRO E1031      76.451  -2.375 166.886  1.00 15.62 LIG 0.24  C 
ATOM     37  N   VAL E1032      77.503  -2.884 167.496  1.00 15.06 LIG-0.35  N 
ATOM     38 H    VAL E1032      78.282  -2.964 167.140  1.00 15.06 LIG 0.16  HD
ATOM     39 O    PRO E1031      75.378  -2.152 167.454  1.00 15.42 LIG-0.27  OA
BRANCH 37 40
ATOM     40  CA  VAL E1032      77.406  -3.353 168.843  1.00 17.90 LIG 0.17  C 
BRANCH 40 41
ATOM     41  C   VAL E1032      77.281  -2.127 169.805  1.00 17.55 LIG 0.22  C 
ATOM     42 O    VAL E1032      76.128  -1.803 170.150  1.00 19.34 LIG-0.29  OA
ENDBRANCH 40 41
BRANCH 40 43
ATOM     43  CB  VAL E1032      78.589  -4.275 169.182  1.00 18.34 LIG 0.01  C 
ATOM     44  CG2 VAL E1032      78.604  -5.492 168.263  1.00 18.91 LIG 0.01  C 
ATOM     45  CG1 VAL E1032      78.520  -4.763 170.606  1.00 20.19 LIG 0.01  C 
ENDBRANCH 40 43
ENDBRANCH 37 40
ENDBRANCH 32 36
ENDBRANCH 27 29
ENDBRANCH 3 27
TORSDOF 15
ENDMDL
MODEL 7
USER: ADFR SOLUTION from run 14
USER: SCORE 12.765359 LL:  -3.412 LR: -11.522 RR:   0.000 FEB:  -7.047
USER: RMSD 3.417457
USER: SEED 341818
USER: STATUS no improvement in best in 7 clusters for 5 generations
USER: GENES 17
USER: genes 0 Translation |==|  0.45022 0.33815 0.45253
USER: genes 1 Rotation |==|  0.53202 0.46897 0.48178 0.99767
USER: genes 2 Torsion [N]-C--CA-[N] |==|  0.80000
USER: genes 3 Torsion [C]-CA--CB-[OG] |==|  0.55289
USER: genes 4 Torsion [CA]-CB--OG-[HG] |==|  0.41452
USER: genes 5 Torsion [C]-CA--N-[C] |==|  0.61759
USER: genes 6 Torsion [N]-C--CA-[N] |==|  0.13178
USER: genes 7 Torsion [C]-CA--N-[C] |==|  0.74903
USER: genes 8 Torsion [N]-C--CA-[N] |==|  0.32311
USER: genes 9 Torsion [C]-CA--CB-[CG] |==|  0.09007
USER: genes 10 Torsion [CA]-CB--CG-[ND2] |==|  0.26317
USER: genes 11 Torsion [C]-N--CA-[CB] |==|  0.25275
USER: genes 12 Torsion [N]-CA--C-[N] |==|  0.44397
USER: genes 13 Torsion [N]-CA--C-[N] |==|  0.16608
USER: genes 14 Torsion [C]-N--CA-[C] |==|  0.80879
USER: genes 15 Torsion [N]-CA--C-[O] |==|  0.28023
USER: genes 16 Torsion [N]-CA--CB-[CG2] |==|  0.83759
ROOT
ATOM      1  C   SER E1029      80.745  -6.201 162.744  1.00 13.48 LIG 0.24  C 
ATOM      2 O    SER E1029      79.991  -6.624 161.883  1.00 12.15 LIG-0.27  OA
ATOM      3  N   ALA E1030      80.319  -5.461 163.783  1.00 12.52 LIG-0.35  N 
ATOM      4 H    ALA E1030      80.840  -5.096 164.361  1.00 12.52 LIG 0.16  HD
ENDROOT
BRANCH 1 5
ATOM      5  CA  SER E1029      82.230  -6.469 162.673  1.00 13.36 LIG 0.20  C 
BRANCH 5 6
ATOM      6  CB  SER E1029      82.731  -6.940 164.033  1.00 14.53 LIG 0.20  C 
BRANCH 6 7
ATOM      7 OG   SER E1029      84.152  -6.768 164.101  1.00 16.05 LIG-0.40  OA
ATOM      8 HG   SER E1029      84.378  -6.612 164.895  1.00 16.05 LIG 0.21  HD
ENDBRANCH 6 7
ENDBRANCH 5 6
BRANCH 5 9
ATOM      9  N   SER E1029      82.958  -5.257 162.299  1.00 13.57 LIG-0.34  N 
ATOM     10 H    SER E1029      82.684  -4.541 162.689  1.00 13.57 LIG 0.16  HD
ATOM     11  C   ALA E1028      83.960  -5.294 161.420  1.00 13.26 LIG 0.24  C 
ATOM     12 O    ALA E1028      84.230  -6.276 160.761  1.00 11.29 LIG-0.27  OA
BRANCH 11 13
ATOM     13  CA  ALA E1028      84.790  -4.015 161.274  1.00 14.25 LIG 0.17  C 
ATOM     14  CB  ALA E1028      86.025  -4.293 160.419  1.00 14.71 LIG 0.04  C 
BRANCH 13 15
ATOM     15  N   ALA E1028      85.163  -3.493 162.591  1.00 14.53 LIG-0.35  N 
ATOM     16 H    ALA E1028      85.908  -3.797 162.896  1.00 14.53 LIG 0.16  HD
ATOM     17  C   ASN E1027      84.400  -2.627 163.234  1.00 16.30 LIG 0.26  C 
ATOM     18 O    ASN E1027      83.288  -2.249 162.776  1.00 15.77 LIG-0.27  OA
BRANCH 17 19
ATOM     19  CA  ASN E1027      84.946  -2.137 164.588  1.00 16.82 LIG 0.41  C 
ATOM     20  N   ASN E1027      85.237  -0.671 164.611  1.00 18.81 LIG 0.61  N 
BRANCH 19 21
ATOM     21  CB  ASN E1027      83.957  -2.412 165.760  1.00 15.29 LIG 0.15  C 
BRANCH 21 22
ATOM     22  CG  ASN E1027      83.134  -3.685 165.563  1.00 13.40 LIG 0.22  C 
ATOM     23 OD1  ASN E1027      82.121  -3.702 164.854  1.00 12.35 LIG-0.27  OA
ATOM     24  ND2 ASN E1027      83.624  -4.777 166.139  1.00 11.10 LIG-0.37  N 
ATOM     25 22HD ASN E1027      84.331  -4.727 166.626  1.00 11.10 LIG 0.16  HD
ATOM     26 21HD ASN E1027      83.234  -5.536 166.025  1.00 11.10 LIG 0.16  HD
ENDBRANCH 21 22
ENDBRANCH 19 21
ENDBRANCH 17 19
ENDBRANCH 13 15
ENDBRANCH 11 13
ENDBRANCH 5 9
ENDBRANCH 1 5
BRANCH 3 27
ATOM     27  CA  ALA E1030      78.903  -5.220 164.004  1.00 12.56 LIG 0.17  C 
ATOM     28  CB  ALA E1030      78.369  -6.329 164.923  1.00 12.51 LIG 0.04  C 
BRANCH 27 29
ATOM     29  C   ALA E1030      78.700  -3.816 164.679  1.00 13.31 LIG 0.24  C 
ATOM     30  N   PRO E1031      77.524  -3.241 164.600  1.00 14.65 LIG-0.34  N 
ATOM     31  CD  PRO E1031      76.363  -3.728 163.836  1.00 15.56 LIG 0.13  C 
ATOM     32  CA  PRO E1031      77.211  -1.979 165.342  1.00 16.02 LIG 0.18  C 
ATOM     33  CG  PRO E1031      75.323  -2.695 164.100  1.00 15.81 LIG 0.02  C 
ATOM     34  CB  PRO E1031      76.044  -1.448 164.571  1.00 15.56 LIG 0.04  C 
ATOM     35 O    ALA E1030      79.592  -3.363 165.352  1.00 13.62 LIG-0.27  OA
BRANCH 32 36
ATOM     36  C   PRO E1031      76.840  -2.247 166.841  1.00 15.62 LIG 0.24  C 
ATOM     37  N   VAL E1032      77.783  -2.839 167.546  1.00 15.06 LIG-0.35  N 
ATOM     38 H    VAL E1032      78.585  -2.978 167.267  1.00 15.06 LIG 0.16  HD
ATOM     39 O    PRO E1031      75.736  -1.943 167.302  1.00 15.42 LIG-0.27  OA
BRANCH 37 40
ATOM     40  CA  VAL E1032      77.517  -3.306 168.870  1.00 17.90 LIG 0.17  C 
BRANCH 40 41
ATOM     41  C   VAL E1032      77.307  -2.077 169.814  1.00 17.55 LIG 0.22  C 
ATOM     42 O    VAL E1032      76.128  -1.783 170.093  1.00 19.34 LIG-0.29  OA
ENDBRANCH 40 41
BRANCH 40 43
ATOM     43  CB  VAL E1032      78.629  -4.255 169.344  1.00 18.34 LIG 0.01  C 
ATOM     44  CG2 VAL E1032      78.759  -5.448 168.402  1.00 18.91 LIG 0.01  C 
ATOM     45  CG1 VAL E1032      78.356  -4.780 170.730  1.00 20.19 LIG 0.01  C 
ENDBRANCH 40 43
ENDBRANCH 37 40
ENDBRANCH 32 36
ENDBRANCH 27 29
ENDBRANCH 3 27
TORSDOF 15
ENDMDL
