MODEL 1
USER: ADFR SOLUTION from run 123
USER: SCORE 19.820080 LL:  -2.044 LR: -18.366 RR:   0.000 FEB: -11.505
USER: RMSD 1.304243
USER: SEED 122
USER: STATUS 1 or 2 clusters left
USER: GENES 25
USER: genes 0 Translation |==|  0.40409 0.52411 0.61579
USER: genes 1 Rotation |==|  0.52053 0.49352 0.50212 0.99953
USER: genes 2 Torsion [N]-CA--C-[N] |==|  0.40272
USER: genes 3 Torsion [C]-N--CA-[C] |==|  0.71468
USER: genes 4 Torsion [N]-CA--C-[N] |==|  0.41392
USER: genes 5 Torsion [C]-N--CA-[C] |==|  0.72902
USER: genes 6 Torsion [N]-CA--C-[OXT] |==|  0.43179
USER: genes 7 Torsion [N]-CA--CB-[CG] |==|  0.47511
USER: genes 8 Torsion [CA]-CB--CG-[CD] |==|  0.28722
USER: genes 9 Torsion [CB]-CG--CD-[NE] |==|  0.28713
USER: genes 10 Torsion [CG]-CD--NE-[CZ] |==|  0.50433
USER: genes 11 Torsion [N]-CA--CB-[CG2] |==|  0.35414
USER: genes 12 Torsion [CA]-CB--OG1-[HG1] |==|  0.26509
USER: genes 13 Torsion [C]-CA--CB-[CG] |==|  0.69374
USER: genes 14 Torsion [CA]-CB--CG-[CD] |==|  0.55260
USER: genes 15 Torsion [CB]-CG--CD-[NE] |==|  0.84858
USER: genes 16 Torsion [CG]-CD--NE-[HE] |==|  0.24623
USER: genes 17 Torsion [C]-CA--N-[C] |==|  0.69444
USER: genes 18 Torsion [N]-C--CA-[N] |==|  0.30109
USER: genes 19 Torsion [C]-CA--N-[C] |==|  0.60948
USER: genes 20 Torsion [N]-C--CA-[N] |==|  0.82287
USER: genes 21 Torsion [C]-CA--CB-[CG] |==|  0.34516
USER: genes 22 Torsion [CA]-CB--CG-[CD] |==|  0.31753
USER: genes 23 Torsion [CB]-CG--CD-[NE] |==|  0.29535
USER: genes 24 Torsion [CG]-CD--NE-[CZ] |==|  0.55415
ROOT
ATOM      1  CA  ARG A 214      -1.846   5.436  -8.213  1.00 73.37 LIG 0.18  C 
ENDROOT
BRANCH 1 2
ATOM      2  C   ARG A 214      -1.492   4.187  -9.008  1.00 70.35 LIG 0.24  C 
ATOM      3 O    ARG A 214      -0.515   4.172  -9.764  1.00 57.55 LIG-0.27  OA
ATOM      4  N   THR A 215      -2.280   3.133  -8.820  1.00 65.27 LIG-0.34  N 
ATOM      5 H    THR A 215      -2.930   3.115  -8.258  1.00 65.27 LIG 0.16  HD
BRANCH 4 6
ATOM      6  CA  THR A 215      -2.100   1.898  -9.567  1.00 68.27 LIG 0.20  C 
BRANCH 6 7
ATOM      7  C   THR A 215      -3.148   1.800 -10.670  1.00 71.74 LIG 0.24  C 
ATOM      8 O    THR A 215      -4.262   2.314 -10.540  1.00 72.98 LIG-0.27  OA
ATOM      9  N   ARG A 216      -2.777   1.151 -11.767  1.00 71.41 LIG-0.34  N 
ATOM     10 H    ARG A 216      -2.002   0.798 -11.889  1.00 71.41 LIG 0.16  HD
BRANCH 9 11
ATOM     11  CA  ARG A 216      -3.709   0.993 -12.879  1.00 72.33 LIG 0.18  C 
BRANCH 11 12
ATOM     12  C   ARG A 216      -4.402  -0.368 -12.849  1.00 79.66 LIG 0.20  C 
ATOM     13 OXT  ARG A 216      -5.497  -0.528 -13.388  1.00 82.24 LIG-0.65  OA
ATOM     14 O    ARG A 216      -3.884  -1.340 -12.299  1.00 77.37 LIG-0.65  OA
ENDBRANCH 11 12
BRANCH 11 15
ATOM     15  CB  ARG A 216      -3.000   1.179 -14.222  1.00 66.30 LIG 0.04  C 
BRANCH 15 16
ATOM     16  CG  ARG A 216      -3.899   0.805 -15.384  1.00 69.07 LIG 0.02  C 
BRANCH 16 17
ATOM     17  CD  ARG A 216      -4.476   1.994 -16.121  1.00 69.32 LIG 0.14  C 
BRANCH 17 18
ATOM     18  NE  ARG A 216      -3.759   2.191 -17.378  1.00 75.64 LIG-0.23  N 
ATOM     19 HE   ARG A 216      -3.134   1.634 -17.572  1.00 75.64 LIG 0.18  HD
ATOM     20  CZ  ARG A 216      -4.003   3.169 -18.244  1.00 75.25 LIG 0.67  C 
ATOM     21  NH1 ARG A 216      -3.291   3.256 -19.359  1.00 73.93 LIG-0.23  N 
ATOM     22  NH2 ARG A 216      -4.954   4.057 -17.997  1.00 84.04 LIG-0.23  N 
ATOM     23 2HH1 ARG A 216      -3.447   3.888 -19.921  1.00 73.93 LIG 0.17  HD
ATOM     24 1HH1 ARG A 216      -2.672   2.680 -19.520  1.00 73.93 LIG 0.17  HD
ATOM     25 2HH2 ARG A 216      -5.110   4.688 -18.559  1.00 84.04 LIG 0.17  HD
ATOM     26 1HH2 ARG A 216      -5.417   4.001 -17.274  1.00 84.04 LIG 0.17  HD
ENDBRANCH 17 18
ENDBRANCH 16 17
ENDBRANCH 15 16
ENDBRANCH 11 15
ENDBRANCH 9 11
ENDBRANCH 6 7
BRANCH 6 27
ATOM     27  CB  THR A 215      -2.192   0.679  -8.642  1.00 72.75 LIG 0.15  C 
ATOM     28  CG2 THR A 215      -3.205  -0.330  -9.172  1.00 70.84 LIG 0.04  C 
BRANCH 27 29
ATOM     29 OG1  THR A 215      -0.907   0.051  -8.541  1.00 79.53 LIG-0.39  OA
ATOM     30 HG1  THR A 215      -0.510   0.334  -7.856  1.00 79.53 LIG 0.21  HD
ENDBRANCH 27 29
ENDBRANCH 6 27
ENDBRANCH 4 6
ENDBRANCH 1 2
BRANCH 1 31
ATOM     31  CB  ARG A 214      -2.776   6.353  -9.029  1.00 80.43 LIG 0.04  C 
BRANCH 31 32
ATOM     32  CG  ARG A 214      -2.129   7.650  -9.494  1.00 86.64 LIG 0.02  C 
BRANCH 32 33
ATOM     33  CD  ARG A 214      -3.150   8.711  -9.878  1.00 94.72 LIG 0.14  C 
BRANCH 33 34
ATOM     34  NE  ARG A 214      -4.112   8.250 -10.875  1.00 97.96 LIG-0.23  N 
ATOM     35 HE   ARG A 214      -4.828   7.865 -10.595  1.00 97.96 LIG 0.18  HD
ATOM     36  CZ  ARG A 214      -3.952   8.386 -12.187  1.00 95.09 LIG 0.67  C 
ATOM     37  NH2 ARG A 214      -4.881   7.939 -13.020  1.00100.24 LIG-0.23  N 
ATOM     38  NH1 ARG A 214      -2.861   8.968 -12.668  1.00 87.66 LIG-0.23  N 
ATOM     39 2HH2 ARG A 214      -4.776   8.027 -13.870  1.00100.24 LIG 0.17  HD
ATOM     40 1HH2 ARG A 214      -5.590   7.560 -12.711  1.00100.24 LIG 0.17  HD
ATOM     41 2HH1 ARG A 214      -2.760   9.055 -13.518  1.00 87.66 LIG 0.17  HD
ATOM     42 1HH1 ARG A 214      -2.256   9.258 -12.130  1.00 87.66 LIG 0.17  HD
ENDBRANCH 33 34
ENDBRANCH 32 33
ENDBRANCH 31 32
ENDBRANCH 1 31
BRANCH 1 43
ATOM     43  N   ARG A 214      -0.631   6.140  -7.831  1.00 58.16 LIG-0.35  N 
ATOM     44 H    ARG A 214      -0.221   6.511  -8.490  1.00 58.16 LIG 0.16  HD
ATOM     45  C   ARG A 213      -0.198   6.200  -6.575  1.00 58.46 LIG 0.24  C 
ATOM     46 O    ARG A 213      -0.747   5.612  -5.639  1.00 62.14 LIG-0.27  OA
BRANCH 45 47
ATOM     47  CA  ARG A 213       1.038   7.051  -6.336  1.00 67.47 LIG 0.18  C 
BRANCH 47 48
ATOM     48  N   ARG A 213       0.659   8.264  -5.628  1.00 69.12 LIG-0.35  N 
ATOM     49 H    ARG A 213       0.064   8.150  -5.018  1.00 69.12 LIG 0.16  HD
ATOM     50  C   GLY A 212       1.200   9.419  -5.923  1.00 65.81 LIG 0.25  C 
ATOM     51 O    GLY A 212       2.049   9.543  -6.764  1.00 63.13 LIG-0.27  OA
BRANCH 50 52
ATOM     52  CA  GLY A 212       0.651  10.584  -5.139  1.00 65.64 LIG 0.47  C 
ATOM     53  N   GLY A 212      -0.752  10.742  -5.477  1.00 75.48 LIG 0.61  N 
ENDBRANCH 50 52
ENDBRANCH 47 48
BRANCH 47 54
ATOM     54  CB  ARG A 213       2.094   6.255  -5.561  1.00 71.07 LIG 0.04  C 
BRANCH 54 55
ATOM     55  CG  ARG A 213       3.432   6.197  -6.274  1.00 85.03 LIG 0.02  C 
BRANCH 55 56
ATOM     56  CD  ARG A 213       4.517   6.928  -5.512  1.00 85.62 LIG 0.14  C 
BRANCH 56 57
ATOM     57  NE  ARG A 213       5.445   6.002  -4.877  1.00 84.98 LIG-0.23  N 
ATOM     58  CZ  ARG A 213       6.248   6.325  -3.868  1.00 90.61 LIG 0.67  C 
ATOM     59  NH2 ARG A 213       7.062   5.416  -3.358  1.00 97.98 LIG-0.23  N 
ATOM     60  NH1 ARG A 213       6.240   7.555  -3.375  1.00 95.33 LIG-0.23  N 
ATOM     61 2HH2 ARG A 213       7.583   5.622  -2.705  1.00 97.98 LIG 0.17  HD
ATOM     62 1HH2 ARG A 213       7.072   4.618  -3.679  1.00 97.98 LIG 0.17  HD
ATOM     63 2HH1 ARG A 213       6.762   7.759  -2.722  1.00 95.33 LIG 0.17  HD
ATOM     64 1HH1 ARG A 213       5.713   8.149  -3.707  1.00 95.33 LIG 0.17  HD
ATOM     65 HE   ARG A 213       5.475   5.195  -5.173  1.00 84.98 LIG 0.18  HD
ENDBRANCH 56 57
ENDBRANCH 55 56
ENDBRANCH 54 55
ENDBRANCH 47 54
ENDBRANCH 45 47
ENDBRANCH 1 43
TORSDOF 23
ENDMDL
MODEL 2
USER: ADFR SOLUTION from run 178
USER: SCORE 19.479661 LL:  -2.376 LR: -17.746 RR:   0.000 FEB: -10.885
USER: RMSD 2.302494
USER: SEED 177
USER: STATUS no improvement in best in 4 clusters for 5 generations
USER: GENES 25
USER: genes 0 Translation |==|  0.39578 0.55369 0.59626
USER: genes 1 Rotation |==|  0.50626 0.34517 0.44386 0.97206
USER: genes 2 Torsion [N]-CA--C-[N] |==|  0.33889
USER: genes 3 Torsion [C]-N--CA-[C] |==|  0.67873
USER: genes 4 Torsion [N]-CA--C-[N] |==|  0.41508
USER: genes 5 Torsion [C]-N--CA-[C] |==|  0.69717
USER: genes 6 Torsion [N]-CA--C-[OXT] |==|  0.39137
USER: genes 7 Torsion [N]-CA--CB-[CG] |==|  0.64527
USER: genes 8 Torsion [CA]-CB--CG-[CD] |==|  0.69265
USER: genes 9 Torsion [CB]-CG--CD-[NE] |==|  0.69982
USER: genes 10 Torsion [CG]-CD--NE-[CZ] |==|  0.72858
USER: genes 11 Torsion [N]-CA--CB-[CG2] |==|  0.52652
USER: genes 12 Torsion [CA]-CB--OG1-[HG1] |==|  0.72309
USER: genes 13 Torsion [C]-CA--CB-[CG] |==|  0.30260
USER: genes 14 Torsion [CA]-CB--CG-[CD] |==|  0.49511
USER: genes 15 Torsion [CB]-CG--CD-[NE] |==|  0.64191
USER: genes 16 Torsion [CG]-CD--NE-[HE] |==|  0.03457
USER: genes 17 Torsion [C]-CA--N-[C] |==|  0.82717
USER: genes 18 Torsion [N]-C--CA-[N] |==|  0.51518
USER: genes 19 Torsion [C]-CA--N-[C] |==|  0.68850
USER: genes 20 Torsion [N]-C--CA-[N] |==|  0.82108
USER: genes 21 Torsion [C]-CA--CB-[CG] |==|  0.57900
USER: genes 22 Torsion [CA]-CB--CG-[CD] |==|  0.37284
USER: genes 23 Torsion [CB]-CG--CD-[NE] |==|  0.56044
USER: genes 24 Torsion [CG]-CD--NE-[CZ] |==|  0.70763
ROOT
ATOM      1  CA  ARG A 214      -2.027   6.057  -8.711  1.00 73.37 LIG 0.18  C 
ENDROOT
BRANCH 1 2
ATOM      2  C   ARG A 214      -1.631   4.674  -9.209  1.00 70.35 LIG 0.24  C 
ATOM      3 O    ARG A 214      -0.510   4.468  -9.687  1.00 57.55 LIG-0.27  OA
ATOM      4  N   THR A 215      -2.550   3.722  -9.080  1.00 65.27 LIG-0.34  N 
ATOM      5 H    THR A 215      -3.313   3.842  -8.702  1.00 65.27 LIG 0.16  HD
BRANCH 4 6
ATOM      6  CA  THR A 215      -2.334   2.373  -9.577  1.00 68.27 LIG 0.20  C 
BRANCH 6 7
ATOM      7  C   THR A 215      -3.329   2.063 -10.690  1.00 71.74 LIG 0.24  C 
ATOM      8 O    THR A 215      -4.446   2.585 -10.712  1.00 72.98 LIG-0.27  OA
ATOM      9  N   ARG A 216      -2.909   1.221 -11.627  1.00 71.41 LIG-0.34  N 
ATOM     10 H    ARG A 216      -2.130   0.856 -11.643  1.00 71.41 LIG 0.16  HD
BRANCH 9 11
ATOM     11  CA  ARG A 216      -3.788   0.850 -12.730  1.00 72.33 LIG 0.18  C 
BRANCH 11 12
ATOM     12  C   ARG A 216      -4.266  -0.596 -12.615  1.00 79.66 LIG 0.20  C 
ATOM     13 OXT  ARG A 216      -5.421  -0.903 -12.909  1.00 82.24 LIG-0.65  OA
ATOM     14 O    ARG A 216      -3.510  -1.493 -12.239  1.00 77.37 LIG-0.65  OA
ENDBRANCH 11 12
BRANCH 11 15
ATOM     15  CB  ARG A 216      -3.096   1.057 -14.079  1.00 66.30 LIG 0.04  C 
BRANCH 15 16
ATOM     16  CG  ARG A 216      -3.939   1.897 -15.018  1.00 69.07 LIG 0.02  C 
BRANCH 16 17
ATOM     17  CD  ARG A 216      -4.499   1.128 -16.194  1.00 69.32 LIG 0.14  C 
BRANCH 17 18
ATOM     18  NE  ARG A 216      -3.806   1.522 -17.417  1.00 75.64 LIG-0.23  N 
ATOM     19 HE   ARG A 216      -3.049   1.150 -17.583  1.00 75.64 LIG 0.18  HD
ATOM     20  CZ  ARG A 216      -4.259   2.414 -18.291  1.00 75.25 LIG 0.67  C 
ATOM     21  NH1 ARG A 216      -3.547   2.699 -19.373  1.00 73.93 LIG-0.23  N 
ATOM     22  NH2 ARG A 216      -5.419   3.019 -18.086  1.00 84.04 LIG-0.23  N 
ATOM     23 2HH1 ARG A 216      -3.838   3.276 -19.940  1.00 73.93 LIG 0.17  HD
ATOM     24 1HH1 ARG A 216      -2.793   2.306 -19.507  1.00 73.93 LIG 0.17  HD
ATOM     25 2HH2 ARG A 216      -5.709   3.596 -18.654  1.00 84.04 LIG 0.17  HD
ATOM     26 1HH2 ARG A 216      -5.881   2.836 -17.384  1.00 84.04 LIG 0.17  HD
ENDBRANCH 17 18
ENDBRANCH 16 17
ENDBRANCH 15 16
ENDBRANCH 11 15
ENDBRANCH 9 11
ENDBRANCH 6 7
BRANCH 6 27
ATOM     27  CB  THR A 215      -2.464   1.344  -8.449  1.00 72.75 LIG 0.15  C 
ATOM     28  CG2 THR A 215      -2.010  -0.035  -8.916  1.00 70.84 LIG 0.04  C 
BRANCH 27 29
ATOM     29 OG1  THR A 215      -1.668   1.751  -7.329  1.00 79.53 LIG-0.39  OA
ATOM     30 HG1  THR A 215      -0.943   1.327  -7.332  1.00 79.53 LIG 0.21  HD
ENDBRANCH 27 29
ENDBRANCH 6 27
ENDBRANCH 4 6
ENDBRANCH 1 2
BRANCH 1 31
ATOM     31  CB  ARG A 214      -2.084   7.059  -9.879  1.00 80.43 LIG 0.04  C 
BRANCH 31 32
ATOM     32  CG  ARG A 214      -3.490   7.502 -10.259  1.00 86.64 LIG 0.02  C 
BRANCH 32 33
ATOM     33  CD  ARG A 214      -3.498   8.523 -11.387  1.00 94.72 LIG 0.14  C 
BRANCH 33 34
ATOM     34  NE  ARG A 214      -4.289   9.712 -11.082  1.00 97.96 LIG-0.23  N 
ATOM     35 HE   ARG A 214      -4.542   9.828 -10.268  1.00 97.96 LIG 0.18  HD
ATOM     36  CZ  ARG A 214      -4.643  10.625 -11.980  1.00 95.09 LIG 0.67  C 
ATOM     37  NH2 ARG A 214      -5.361  11.677 -11.611  1.00100.24 LIG-0.23  N 
ATOM     38  NH1 ARG A 214      -4.281  10.487 -13.249  1.00 87.66 LIG-0.23  N 
ATOM     39 2HH2 ARG A 214      -5.590  12.268 -12.193  1.00100.24 LIG 0.17  HD
ATOM     40 1HH2 ARG A 214      -5.598  11.769 -10.789  1.00100.24 LIG 0.17  HD
ATOM     41 2HH1 ARG A 214      -4.512  11.080 -13.828  1.00 87.66 LIG 0.17  HD
ATOM     42 1HH1 ARG A 214      -3.817   9.806 -13.491  1.00 87.66 LIG 0.17  HD
ENDBRANCH 33 34
ENDBRANCH 32 33
ENDBRANCH 31 32
ENDBRANCH 1 31
BRANCH 1 43
ATOM     43  N   ARG A 214      -1.088   6.503  -7.693  1.00 58.16 LIG-0.35  N 
ATOM     44 H    ARG A 214      -0.653   7.214  -7.907  1.00 58.16 LIG 0.16  HD
ATOM     45  C   ARG A 213      -0.922   5.865  -6.538  1.00 58.46 LIG 0.24  C 
ATOM     46 O    ARG A 213      -1.494   4.808  -6.258  1.00 62.14 LIG-0.27  OA
BRANCH 45 47
ATOM     47  CA  ARG A 213       0.032   6.515  -5.549  1.00 67.47 LIG 0.18  C 
BRANCH 47 48
ATOM     48  N   ARG A 213       0.205   5.639  -4.401  1.00 69.12 LIG-0.35  N 
ATOM     49 H    ARG A 213       0.624   4.907  -4.569  1.00 69.12 LIG 0.16  HD
ATOM     50  C   GLY A 212      -0.252   5.970  -3.220  1.00 65.81 LIG 0.25  C 
ATOM     51 O    GLY A 212      -0.811   7.013  -3.008  1.00 63.13 LIG-0.27  OA
BRANCH 50 52
ATOM     52  CA  GLY A 212      -0.045   4.924  -2.153  1.00 65.64 LIG 0.47  C 
ATOM     53  N   GLY A 212      -0.814   3.747  -2.512  1.00 75.48 LIG 0.61  N 
ENDBRANCH 50 52
ENDBRANCH 47 48
BRANCH 47 54
ATOM     54  CB  ARG A 213       1.372   6.827  -6.224  1.00 71.07 LIG 0.04  C 
BRANCH 54 55
ATOM     55  CG  ARG A 213       2.539   6.815  -5.255  1.00 85.03 LIG 0.02  C 
BRANCH 55 56
ATOM     56  CD  ARG A 213       3.727   6.050  -5.803  1.00 85.62 LIG 0.14  C 
BRANCH 56 57
ATOM     57  NE  ARG A 213       4.616   5.604  -4.738  1.00 84.98 LIG-0.23  N 
ATOM     58  CZ  ARG A 213       5.792   6.159  -4.467  1.00 90.61 LIG 0.67  C 
ATOM     59  NH2 ARG A 213       6.534   5.680  -3.482  1.00 97.98 LIG-0.23  N 
ATOM     60  NH1 ARG A 213       6.228   7.186  -5.182  1.00 95.33 LIG-0.23  N 
ATOM     61 2HH2 ARG A 213       7.296   6.037  -3.303  1.00 97.98 LIG 0.17  HD
ATOM     62 1HH2 ARG A 213       6.255   5.011  -3.018  1.00 97.98 LIG 0.17  HD
ATOM     63 2HH1 ARG A 213       6.990   7.542  -5.003  1.00 95.33 LIG 0.17  HD
ATOM     64 1HH1 ARG A 213       5.748   7.497  -5.825  1.00 95.33 LIG 0.17  HD
ATOM     65 HE   ARG A 213       4.363   4.939  -4.255  1.00 84.98 LIG 0.18  HD
ENDBRANCH 56 57
ENDBRANCH 55 56
ENDBRANCH 54 55
ENDBRANCH 47 54
ENDBRANCH 45 47
ENDBRANCH 1 43
TORSDOF 23
ENDMDL
MODEL 3
USER: ADFR SOLUTION from run 163
USER: SCORE 18.637848 LL:  -2.812 LR: -16.618 RR:   0.000 FEB:  -9.757
USER: RMSD 2.713109
USER: SEED 162
USER: STATUS no improvement in best in 6 clusters for 5 generations
USER: GENES 25
USER: genes 0 Translation |==|  0.40382 0.53416 0.60444
USER: genes 1 Rotation |==|  0.53206 0.38462 0.44407 0.98222
USER: genes 2 Torsion [N]-CA--C-[N] |==|  0.32268
USER: genes 3 Torsion [C]-N--CA-[C] |==|  0.71321
USER: genes 4 Torsion [N]-CA--C-[N] |==|  0.41346
USER: genes 5 Torsion [C]-N--CA-[C] |==|  0.71154
USER: genes 6 Torsion [N]-CA--C-[OXT] |==|  0.43552
USER: genes 7 Torsion [N]-CA--CB-[CG] |==|  0.49059
USER: genes 8 Torsion [CA]-CB--CG-[CD] |==|  0.30023
USER: genes 9 Torsion [CB]-CG--CD-[NE] |==|  0.28505
USER: genes 10 Torsion [CG]-CD--NE-[CZ] |==|  0.49807
USER: genes 11 Torsion [N]-CA--CB-[CG2] |==|  0.34393
USER: genes 12 Torsion [CA]-CB--OG1-[HG1] |==|  0.04220
USER: genes 13 Torsion [C]-CA--CB-[CG] |==|  0.31259
USER: genes 14 Torsion [CA]-CB--CG-[CD] |==|  0.96257
USER: genes 15 Torsion [CB]-CG--CD-[NE] |==|  0.76397
USER: genes 16 Torsion [CG]-CD--NE-[HE] |==|  0.14504
USER: genes 17 Torsion [C]-CA--N-[C] |==|  0.75235
USER: genes 18 Torsion [N]-C--CA-[N] |==|  0.54443
USER: genes 19 Torsion [C]-CA--N-[C] |==|  0.68262
USER: genes 20 Torsion [N]-C--CA-[N] |==|  0.93393
USER: genes 21 Torsion [C]-CA--CB-[CG] |==|  0.49246
USER: genes 22 Torsion [CA]-CB--CG-[CD] |==|  0.38661
USER: genes 23 Torsion [CB]-CG--CD-[NE] |==|  0.65661
USER: genes 24 Torsion [CG]-CD--NE-[CZ] |==|  0.67931
ROOT
ATOM      1  CA  ARG A 214      -1.852   5.647  -8.503  1.00 73.37 LIG 0.18  C 
ENDROOT
BRANCH 1 2
ATOM      2  C   ARG A 214      -1.495   4.348  -9.212  1.00 70.35 LIG 0.24  C 
ATOM      3 O    ARG A 214      -0.510   4.282  -9.956  1.00 57.55 LIG-0.27  OA
ATOM      4  N   THR A 215      -2.288   3.311  -8.964  1.00 65.27 LIG-0.34  N 
ATOM      5 H    THR A 215      -2.944   3.331  -8.409  1.00 65.27 LIG 0.16  HD
BRANCH 4 6
ATOM      6  CA  THR A 215      -2.106   2.030  -9.628  1.00 68.27 LIG 0.20  C 
BRANCH 6 7
ATOM      7  C   THR A 215      -3.151   1.858 -10.724  1.00 71.74 LIG 0.24  C 
ATOM      8 O    THR A 215      -4.267   2.375 -10.629  1.00 72.98 LIG-0.27  OA
ATOM      9  N   ARG A 216      -2.776   1.142 -11.777  1.00 71.41 LIG-0.34  N 
ATOM     10 H    ARG A 216      -1.999   0.785 -11.875  1.00 71.41 LIG 0.16  HD
BRANCH 9 11
ATOM     11  CA  ARG A 216      -3.705   0.910 -12.878  1.00 72.33 LIG 0.18  C 
BRANCH 11 12
ATOM     12  C   ARG A 216      -4.278  -0.505 -12.849  1.00 79.66 LIG 0.20  C 
ATOM     13 OXT  ARG A 216      -5.351  -0.762 -13.396  1.00 82.24 LIG-0.65  OA
ATOM     14 O    ARG A 216      -3.682  -1.428 -12.291  1.00 77.37 LIG-0.65  OA
ENDBRANCH 11 12
BRANCH 11 15
ATOM     15  CB  ARG A 216      -3.033   1.165 -14.229  1.00 66.30 LIG 0.04  C 
BRANCH 15 16
ATOM     16  CG  ARG A 216      -3.962   0.848 -15.384  1.00 69.07 LIG 0.02  C 
BRANCH 16 17
ATOM     17  CD  ARG A 216      -4.471   2.071 -16.115  1.00 69.32 LIG 0.14  C 
BRANCH 17 18
ATOM     18  NE  ARG A 216      -3.742   2.235 -17.370  1.00 75.64 LIG-0.23  N 
ATOM     19 HE   ARG A 216      -3.128   1.662 -17.551  1.00 75.64 LIG 0.18  HD
ATOM     20  CZ  ARG A 216      -3.959   3.206 -18.250  1.00 75.25 LIG 0.67  C 
ATOM     21  NH1 ARG A 216      -3.238   3.263 -19.361  1.00 73.93 LIG-0.23  N 
ATOM     22  NH2 ARG A 216      -4.892   4.118 -18.022  1.00 84.04 LIG-0.23  N 
ATOM     23 2HH1 ARG A 216      -3.376   3.891 -19.933  1.00 73.93 LIG 0.17  HD
ATOM     24 1HH1 ARG A 216      -2.631   2.672 -19.510  1.00 73.93 LIG 0.17  HD
ATOM     25 2HH2 ARG A 216      -5.030   4.745 -18.594  1.00 84.04 LIG 0.17  HD
ATOM     26 1HH2 ARG A 216      -5.361   4.082 -17.301  1.00 84.04 LIG 0.17  HD
ENDBRANCH 17 18
ENDBRANCH 16 17
ENDBRANCH 15 16
ENDBRANCH 11 15
ENDBRANCH 9 11
ENDBRANCH 6 7
BRANCH 6 27
ATOM     27  CB  THR A 215      -2.198   0.874  -8.625  1.00 72.75 LIG 0.15  C 
ATOM     28  CG2 THR A 215      -3.273  -0.124  -9.043  1.00 70.84 LIG 0.04  C 
BRANCH 27 29
ATOM     29 OG1  THR A 215      -0.934   0.202  -8.545  1.00 79.53 LIG-0.39  OA
ATOM     30 HG1  THR A 215      -0.338   0.682  -8.892  1.00 79.53 LIG 0.21  HD
ENDBRANCH 27 29
ENDBRANCH 6 27
ENDBRANCH 4 6
ENDBRANCH 1 2
BRANCH 1 31
ATOM     31  CB  ARG A 214      -2.116   6.769  -9.524  1.00 80.43 LIG 0.04  C 
BRANCH 31 32
ATOM     32  CG  ARG A 214      -3.561   7.243  -9.578  1.00 86.64 LIG 0.02  C 
BRANCH 32 33
ATOM     33  CD  ARG A 214      -4.514   6.302  -8.855  1.00 94.72 LIG 0.14  C 
BRANCH 33 34
ATOM     34  NE  ARG A 214      -4.967   5.190  -9.687  1.00 97.96 LIG-0.23  N 
ATOM     35 HE   ARG A 214      -4.369   4.716 -10.084  1.00 97.96 LIG 0.18  HD
ATOM     36  CZ  ARG A 214      -6.242   4.865  -9.870  1.00 95.09 LIG 0.67  C 
ATOM     37  NH2 ARG A 214      -6.561   3.835 -10.642  1.00100.24 LIG-0.23  N 
ATOM     38  NH1 ARG A 214      -7.200   5.569  -9.282  1.00 87.66 LIG-0.23  N 
ATOM     39 2HH2 ARG A 214      -7.388   3.625 -10.760  1.00100.24 LIG 0.17  HD
ATOM     40 1HH2 ARG A 214      -5.942   3.376 -11.025  1.00100.24 LIG 0.17  HD
ATOM     41 2HH1 ARG A 214      -8.025   5.356  -9.402  1.00 87.66 LIG 0.17  HD
ATOM     42 1HH1 ARG A 214      -6.996   6.238  -8.782  1.00 87.66 LIG 0.17  HD
ENDBRANCH 33 34
ENDBRANCH 32 33
ENDBRANCH 31 32
ENDBRANCH 1 31
BRANCH 1 43
ATOM     43  N   ARG A 214      -0.784   6.021  -7.588  1.00 58.16 LIG-0.35  N 
ATOM     44 H    ARG A 214      -0.186   6.529  -7.940  1.00 58.16 LIG 0.16  HD
ATOM     45  C   ARG A 213      -0.742   5.612  -6.324  1.00 58.46 LIG 0.24  C 
ATOM     46 O    ARG A 213      -1.562   4.829  -5.836  1.00 62.14 LIG-0.27  OA
BRANCH 45 47
ATOM     47  CA  ARG A 213       0.394   6.168  -5.481  1.00 67.47 LIG 0.18  C 
BRANCH 47 48
ATOM     48  N   ARG A 213       0.538   5.365  -4.276  1.00 69.12 LIG-0.35  N 
ATOM     49 H    ARG A 213       0.790   4.555  -4.415  1.00 69.12 LIG 0.16  HD
ATOM     50  C   GLY A 212       0.294   5.868  -3.093  1.00 65.81 LIG 0.25  C 
ATOM     51 O    GLY A 212      -0.032   7.013  -2.927  1.00 63.13 LIG-0.27  OA
BRANCH 50 52
ATOM     52  CA  GLY A 212       0.430   4.886  -1.956  1.00 65.64 LIG 0.47  C 
ATOM     53  N   GLY A 212       0.244   3.547  -2.485  1.00 75.48 LIG 0.61  N 
ENDBRANCH 50 52
ENDBRANCH 47 48
BRANCH 47 54
ATOM     54  CB  ARG A 213       1.695   6.203  -6.291  1.00 71.07 LIG 0.04  C 
BRANCH 54 55
ATOM     55  CG  ARG A 213       2.853   6.810  -5.523  1.00 85.03 LIG 0.02  C 
BRANCH 55 56
ATOM     56  CD  ARG A 213       4.147   6.055  -5.749  1.00 85.62 LIG 0.14  C 
BRANCH 56 57
ATOM     57  NE  ARG A 213       4.729   5.598  -4.495  1.00 84.98 LIG-0.23  N 
ATOM     58  CZ  ARG A 213       5.895   6.019  -4.018  1.00 90.61 LIG 0.67  C 
ATOM     59  NH2 ARG A 213       6.347   5.542  -2.868  1.00 97.98 LIG-0.23  N 
ATOM     60  NH1 ARG A 213       6.611   6.910  -4.688  1.00 95.33 LIG-0.23  N 
ATOM     61 2HH2 ARG A 213       7.102   5.812  -2.557  1.00 97.98 LIG 0.17  HD
ATOM     62 1HH2 ARG A 213       5.886   4.960  -2.433  1.00 97.98 LIG 0.17  HD
ATOM     63 2HH1 ARG A 213       7.365   7.179  -4.375  1.00 95.33 LIG 0.17  HD
ATOM     64 1HH1 ARG A 213       6.321   7.220  -5.437  1.00 95.33 LIG 0.17  HD
ATOM     65 HE   ARG A 213       4.290   5.019  -4.034  1.00 84.98 LIG 0.18  HD
ENDBRANCH 56 57
ENDBRANCH 55 56
ENDBRANCH 54 55
ENDBRANCH 47 54
ENDBRANCH 45 47
ENDBRANCH 1 43
TORSDOF 23
ENDMDL
