MODEL 1
USER: ADFR SOLUTION from run 194
USER: SCORE 23.574507 LL:  -4.644 LR: -19.920 RR:   0.000 FEB: -11.568
USER: RMSD 3.678871
USER: SEED 193
USER: STATUS no improvement in best in 5 clusters for 5 generations
USER: GENES 30
USER: genes 0 Translation |==|  0.47678 0.53815 0.57743
USER: genes 1 Rotation |==|  0.48485 0.49136 0.49385 0.99966
USER: genes 2 Torsion [N]-CA--C-[N] |==|  0.37949
USER: genes 3 Torsion [C]-N--CA-[CB] |==|  0.50556
USER: genes 4 Torsion [N]-CA--C-[N] |==|  0.47088
USER: genes 5 Torsion [C]-N--CA-[CB] |==|  0.83124
USER: genes 6 Torsion [N]-CA--C-[O] |==|  0.09811
USER: genes 7 Torsion [N]-CA--CB-[CG] |==|  0.61151
USER: genes 8 Torsion [CA]-CB--CG-[CD] |==|  0.38782
USER: genes 9 Torsion [CB]-CG--CD-[NE] |==|  0.81266
USER: genes 10 Torsion [CG]-CD--NE-[HE] |==|  0.13666
USER: genes 11 Torsion [N]-CA--CB-[CG] |==|  0.92964
USER: genes 12 Torsion [CA]-CB--CG-[CD] |==|  0.37321
USER: genes 13 Torsion [CB]-CG--CD-[NE] |==|  0.20626
USER: genes 14 Torsion [CG]-CD--NE-[CZ] |==|  0.30086
USER: genes 15 Torsion [N]-C--CA-[N] |==|  0.35827
USER: genes 16 Torsion [C]-CA--CB-[CG2] |==|  0.22634
USER: genes 17 Torsion [CA]-CB--OG1-[HG1] |==|  0.15250
USER: genes 18 Torsion [C]-CA--N-[C] |==|  0.75556
USER: genes 19 Torsion [N]-C--CA-[N] |==|  0.90948
USER: genes 20 Torsion [C]-CA--CB-[CG] |==|  0.51318
USER: genes 21 Torsion [CA]-CB--CG-[CD1] |==|  0.24377
USER: genes 22 Torsion [C]-CA--N-[C] |==|  0.67896
USER: genes 23 Torsion [N]-C--CA-[N] |==|  0.86733
USER: genes 24 Torsion [C]-CA--N-[C] |==|  0.83639
USER: genes 25 Torsion [N]-C--CA-[N] |==|  0.79101
USER: genes 26 Torsion [C]-CA--CB-[CG2] |==|  0.22718
USER: genes 27 Torsion [CA]-CB--CG1-[CD1] |==|  0.39236
USER: genes 28 Torsion [C]-CA--CB-[CG] |==|  0.57171
USER: genes 29 Torsion [CA]-CB--CG-[CD1] |==|  0.34345
ROOT
ATOM      1  C   THR D 648     -63.570   9.446  -5.009  1.00 57.47 LIG 0.24  C 
ATOM      2 O    THR D 648     -62.497   9.520  -5.612  1.00 58.33 LIG-0.27  OA
ATOM      3  N   PRO D 649     -64.560   8.620  -5.388  1.00 55.77 LIG-0.34  N 
ATOM      4  CA  PRO D 649     -64.396   7.644  -6.476  1.00 54.43 LIG 0.18  C 
ATOM      5  CB  PRO D 649     -65.558   6.674  -6.236  1.00 56.30 LIG 0.04  C 
ATOM      6  CG  PRO D 649     -66.605   7.504  -5.566  1.00 52.90 LIG 0.02  C 
ATOM      7  CD  PRO D 649     -65.834   8.430  -4.666  1.00 52.65 LIG 0.13  C 
ENDROOT
BRANCH 4 8
ATOM      8  C   PRO D 649     -64.480   8.198  -7.903  1.00 62.44 LIG 0.24  C 
ATOM      9  N   ARG D 650     -63.569   7.743  -8.762  1.00 65.13 LIG-0.35  N 
ATOM     10 H    ARG D 650     -62.850   7.338  -8.519  1.00 65.13 LIG 0.16  HD
ATOM     11 O    PRO D 649     -65.351   9.013  -8.206  1.00 64.48 LIG-0.27  OA
BRANCH 9 12
ATOM     12  CA  ARG D 650     -63.704   7.889 -10.214  1.00 68.90 LIG 0.18  C 
BRANCH 12 13
ATOM     13  C   ARG D 650     -65.030   7.266 -10.654  1.00 70.53 LIG 0.24  C 
ATOM     14  N   ARG D 651     -65.424   7.492 -11.904  1.00 72.55 LIG-0.35  N 
ATOM     15 H    ARG D 651     -64.960   7.909 -12.496  1.00 72.55 LIG 0.16  HD
ATOM     16 O    ARG D 650     -65.699   6.596  -9.864  1.00 68.24 LIG-0.27  OA
BRANCH 14 17
ATOM     17  CA  ARG D 651     -66.730   7.022 -12.359  1.00 72.50 LIG 0.16  C 
BRANCH 17 18
ATOM     18  C   ARG D 651     -67.857   7.680 -11.560  1.00 69.52 LIG 0.22  C 
ATOM     19 O    ARG D 651     -67.767   8.850 -11.172  1.00 68.10 LIG-0.29  OA
ENDBRANCH 17 18
BRANCH 17 20
ATOM     20  CB  ARG D 651     -66.847   5.487 -12.259  1.00 76.74 LIG 0.04  C 
BRANCH 20 21
ATOM     21  CG  ARG D 651     -67.566   4.694 -13.408  1.00 75.60 LIG 0.02  C 
BRANCH 21 22
ATOM     22  CD  ARG D 651     -66.926   3.347 -13.841  1.00 74.66 LIG 0.14  C 
BRANCH 22 23
ATOM     23  NE  ARG D 651     -65.620   3.461 -14.502  1.00 75.25 LIG-0.23  N 
ATOM     24 HE   ARG D 651     -65.027   3.949 -14.115  1.00 75.25 LIG 0.18  HD
ATOM     25  CZ  ARG D 651     -65.273   2.876 -15.647  1.00 78.75 LIG 0.67  C 
ATOM     26  NH2 ARG D 651     -64.054   3.061 -16.143  1.00 79.25 LIG-0.23  N 
ATOM     27  NH1 ARG D 651     -66.126   2.095 -16.285  1.00 78.43 LIG-0.23  N 
ATOM     28 2HH2 ARG D 651     -63.829   2.684 -16.882  1.00 79.25 LIG 0.17  HD
ATOM     29 1HH2 ARG D 651     -63.491   3.559 -15.725  1.00 79.25 LIG 0.17  HD
ATOM     30 2HH1 ARG D 651     -65.895   1.719 -17.023  1.00 78.43 LIG 0.17  HD
ATOM     31 1HH1 ARG D 651     -66.911   1.961 -15.962  1.00 78.43 LIG 0.17  HD
ENDBRANCH 22 23
ENDBRANCH 21 22
ENDBRANCH 20 21
ENDBRANCH 17 20
ENDBRANCH 14 17
ENDBRANCH 12 13
BRANCH 12 32
ATOM     32  CB  ARG D 650     -62.530   7.226 -10.950  1.00 66.96 LIG 0.04  C 
BRANCH 32 33
ATOM     33  CG  ARG D 650     -61.239   7.113 -10.142  1.00 73.73 LIG 0.02  C 
BRANCH 33 34
ATOM     34  CD  ARG D 650     -60.615   5.716 -10.275  1.00 75.05 LIG 0.14  C 
BRANCH 34 35
ATOM     35  NE  ARG D 650     -59.975   5.473 -11.557  1.00 81.10 LIG-0.23  N 
ATOM     36 HE   ARG D 650     -60.478   5.372 -12.247  1.00 81.10 LIG 0.18  HD
ATOM     37  CZ  ARG D 650     -58.657   5.396 -11.728  1.00 84.47 LIG 0.67  C 
ATOM     38  NH1 ARG D 650     -57.843   5.535 -10.690  1.00 76.84 LIG-0.23  N 
ATOM     39  NH2 ARG D 650     -58.144   5.175 -12.939  1.00 84.76 LIG-0.23  N 
ATOM     40 1HH1 ARG D 650     -58.166   5.676  -9.905  1.00 76.84 LIG 0.17  HD
ATOM     41 2HH1 ARG D 650     -56.991   5.486 -10.801  1.00 76.84 LIG 0.17  HD
ATOM     42 1HH2 ARG D 650     -58.666   5.081 -13.617  1.00 84.76 LIG 0.17  HD
ATOM     43 2HH2 ARG D 650     -57.292   5.127 -13.043  1.00 84.76 LIG 0.17  HD
ENDBRANCH 34 35
ENDBRANCH 33 34
ENDBRANCH 32 33
ENDBRANCH 12 32
ENDBRANCH 9 12
ENDBRANCH 4 8
BRANCH 1 44
ATOM     44  CA  THR D 648     -63.813  10.282  -3.752  1.00 55.33 LIG 0.20  C 
BRANCH 44 45
ATOM     45  CB  THR D 648     -64.044  11.778  -4.115  1.00 57.91 LIG 0.15  C 
ATOM     46  CG2 THR D 648     -65.493  12.022  -4.558  1.00 54.65 LIG 0.04  C 
BRANCH 45 47
ATOM     47 OG1  THR D 648     -63.752  12.602  -2.975  1.00 51.58 LIG-0.39  OA
ATOM     48 HG1  THR D 648     -62.973  12.440  -2.703  1.00 51.58 LIG 0.21  HD
ENDBRANCH 45 47
ENDBRANCH 44 45
BRANCH 44 49
ATOM     49  N   THR D 648     -62.681  10.119  -2.845  1.00 49.85 LIG-0.34  N 
ATOM     50 H    THR D 648     -62.060  10.706  -2.942  1.00 49.85 LIG 0.16  HD
ATOM     51  C   LEU D 647     -62.644   9.135  -1.954  1.00 48.49 LIG 0.24  C 
ATOM     52 O    LEU D 647     -63.513   8.264  -1.878  1.00 50.57 LIG-0.27  OA
BRANCH 51 53
ATOM     53  CA  LEU D 647     -61.465   9.141  -0.994  1.00 48.52 LIG 0.18  C 
BRANCH 53 54
ATOM     54  CB  LEU D 647     -61.839   9.948   0.249  1.00 42.08 LIG 0.04  C 
BRANCH 54 55
ATOM     55  CG  LEU D 647     -60.763  10.183   1.310  1.00 43.63 LIG-0.02  C 
ATOM     56  CD1 LEU D 647     -59.963  11.449   0.975  1.00 34.09 LIG 0.01  C 
ATOM     57  CD2 LEU D 647     -61.392  10.286   2.677  1.00 37.87 LIG 0.01  C 
ENDBRANCH 54 55
ENDBRANCH 53 54
BRANCH 53 58
ATOM     58  N   LEU D 647     -60.251   9.679  -1.607  1.00 49.21 LIG-0.35  N 
ATOM     59  C   LEU D 646     -59.166   8.929  -1.796  1.00 51.75 LIG 0.24  C 
ATOM     60 O    LEU D 646     -59.131   7.720  -1.559  1.00 46.22 LIG-0.27  OA
ATOM     61 H    LEU D 647     -60.305  10.508  -1.830  1.00 49.21 LIG 0.16  HD
BRANCH 59 62
ATOM     62  CA  LEU D 646     -57.940   9.642  -2.351  1.00 53.11 LIG 0.18  C 
BRANCH 62 63
ATOM     63  N   LEU D 646     -58.284  10.471  -3.500  1.00 56.32 LIG-0.35  N 
ATOM     64  C   ILE D 645     -58.838   9.945  -4.589  1.00 63.27 LIG 0.26  C 
ATOM     65 O    ILE D 645     -59.067   8.735  -4.707  1.00 63.46 LIG-0.27  OA
ATOM     66 H    LEU D 646     -58.099  11.305  -3.408  1.00 56.32 LIG 0.16  HD
BRANCH 64 67
ATOM     67  CA  ILE D 645     -59.212  10.923  -5.705  1.00 63.54 LIG 0.40  C 
ATOM     68  N   ILE D 645     -60.415  11.692  -5.390  1.00 63.63 LIG 0.61  N 
BRANCH 67 69
ATOM     69  CB  ILE D 645     -57.990  11.828  -5.952  1.00 61.73 LIG 0.03  C 
ATOM     70  CG2 ILE D 645     -56.986  11.111  -6.860  1.00 57.36 LIG 0.01  C 
BRANCH 69 71
ATOM     71  CG1 ILE D 645     -58.409  13.184  -6.533  1.00 65.03 LIG 0.00  C 
ATOM     72  CD1 ILE D 645     -57.607  14.354  -5.979  1.00 60.49 LIG 0.01  C 
ENDBRANCH 69 71
ENDBRANCH 67 69
ENDBRANCH 64 67
ENDBRANCH 62 63
BRANCH 62 73
ATOM     73  CB  LEU D 646     -57.284  10.487  -1.263  1.00 52.76 LIG 0.04  C 
BRANCH 73 74
ATOM     74  CG  LEU D 646     -56.480  11.679  -1.775  1.00 58.95 LIG-0.02  C 
ATOM     75  CD1 LEU D 646     -56.993  12.978  -1.148  1.00 55.02 LIG 0.01  C 
ATOM     76  CD2 LEU D 646     -54.997  11.470  -1.483  1.00 54.54 LIG 0.01  C 
ENDBRANCH 73 74
ENDBRANCH 62 73
ENDBRANCH 59 62
ENDBRANCH 53 58
ENDBRANCH 51 53
ENDBRANCH 44 49
ENDBRANCH 1 44
TORSDOF 28
ENDMDL
MODEL 2
USER: ADFR SOLUTION from run 169
USER: SCORE 23.493213 LL:  -4.968 LR: -19.592 RR:   0.000 FEB: -11.240
USER: RMSD 2.696652
USER: SEED 168
USER: STATUS no improvement in best in 3 clusters for 5 generations
USER: GENES 30
USER: genes 0 Translation |==|  0.47519 0.53450 0.58283
USER: genes 1 Rotation |==|  0.48731 0.49801 0.48010 0.99944
USER: genes 2 Torsion [N]-CA--C-[N] |==|  0.38178
USER: genes 3 Torsion [C]-N--CA-[CB] |==|  0.49447
USER: genes 4 Torsion [N]-CA--C-[N] |==|  0.47541
USER: genes 5 Torsion [C]-N--CA-[CB] |==|  0.37166
USER: genes 6 Torsion [N]-CA--C-[O] |==|  0.16579
USER: genes 7 Torsion [N]-CA--CB-[CG] |==|  0.65967
USER: genes 8 Torsion [CA]-CB--CG-[CD] |==|  0.94016
USER: genes 9 Torsion [CB]-CG--CD-[NE] |==|  0.87709
USER: genes 10 Torsion [CG]-CD--NE-[HE] |==|  0.18001
USER: genes 11 Torsion [N]-CA--CB-[CG] |==|  0.88630
USER: genes 12 Torsion [CA]-CB--CG-[CD] |==|  0.37531
USER: genes 13 Torsion [CB]-CG--CD-[NE] |==|  0.22550
USER: genes 14 Torsion [CG]-CD--NE-[CZ] |==|  0.36340
USER: genes 15 Torsion [N]-C--CA-[N] |==|  0.37345
USER: genes 16 Torsion [C]-CA--CB-[CG2] |==|  0.21021
USER: genes 17 Torsion [CA]-CB--OG1-[HG1] |==|  0.19007
USER: genes 18 Torsion [C]-CA--N-[C] |==|  0.76762
USER: genes 19 Torsion [N]-C--CA-[N] |==|  0.89772
USER: genes 20 Torsion [C]-CA--CB-[CG] |==|  0.37043
USER: genes 21 Torsion [CA]-CB--CG-[CD1] |==|  0.13583
USER: genes 22 Torsion [C]-CA--N-[C] |==|  0.68333
USER: genes 23 Torsion [N]-C--CA-[N] |==|  0.87227
USER: genes 24 Torsion [C]-CA--N-[C] |==|  0.84113
USER: genes 25 Torsion [N]-C--CA-[N] |==|  0.77725
USER: genes 26 Torsion [C]-CA--CB-[CG2] |==|  0.22789
USER: genes 27 Torsion [CA]-CB--CG1-[CD1] |==|  0.40830
USER: genes 28 Torsion [C]-CA--CB-[CG] |==|  0.76923
USER: genes 29 Torsion [CA]-CB--CG-[CD1] |==|  0.27799
ROOT
ATOM      1  C   THR D 648     -63.609   9.388  -4.863  1.00 57.47 LIG 0.24  C 
ATOM      2 O    THR D 648     -62.549   9.410  -5.492  1.00 58.33 LIG-0.27  OA
ATOM      3  N   PRO D 649     -64.652   8.623  -5.226  1.00 55.77 LIG-0.34  N 
ATOM      4  CA  PRO D 649     -64.570   7.652  -6.328  1.00 54.43 LIG 0.18  C 
ATOM      5  CB  PRO D 649     -65.779   6.746  -6.068  1.00 56.30 LIG 0.04  C 
ATOM      6  CG  PRO D 649     -66.761   7.625  -5.364  1.00 52.90 LIG 0.02  C 
ATOM      7  CD  PRO D 649     -65.917   8.496  -4.474  1.00 52.65 LIG 0.13  C 
ENDROOT
BRANCH 4 8
ATOM      8  C   PRO D 649     -64.658   8.228  -7.746  1.00 62.44 LIG 0.24  C 
ATOM      9  N   ARG D 650     -63.806   7.720  -8.637  1.00 65.13 LIG-0.35  N 
ATOM     10 H    ARG D 650     -63.110   7.264  -8.419  1.00 65.13 LIG 0.16  HD
ATOM     11 O    PRO D 649     -65.479   9.104  -8.015  1.00 64.48 LIG-0.27  OA
BRANCH 9 12
ATOM     12  CA  ARG D 650     -63.974   7.891 -10.082  1.00 68.90 LIG 0.18  C 
BRANCH 12 13
ATOM     13  C   ARG D 650     -65.310   7.277 -10.504  1.00 70.53 LIG 0.24  C 
ATOM     14  N   ARG D 651     -65.716   7.497 -11.750  1.00 72.55 LIG-0.35  N 
ATOM     15 H    ARG D 651     -65.255   7.906 -12.351  1.00 72.55 LIG 0.16  HD
ATOM     16 O    ARG D 650     -65.975   6.617  -9.701  1.00 68.24 LIG-0.27  OA
BRANCH 14 17
ATOM     17  CA  ARG D 651     -67.031   7.034 -12.187  1.00 72.50 LIG 0.16  C 
BRANCH 17 18
ATOM     18  C   ARG D 651     -66.909   5.777 -13.050  1.00 69.52 LIG 0.22  C 
ATOM     19 O    ARG D 651     -66.393   4.745 -12.605  1.00 68.10 LIG-0.29  OA
ENDBRANCH 17 18
BRANCH 17 20
ATOM     20  CB  ARG D 651     -67.788   8.131 -12.967  1.00 76.74 LIG 0.04  C 
BRANCH 20 21
ATOM     21  CG  ARG D 651     -69.197   8.601 -12.459  1.00 75.60 LIG 0.02  C 
BRANCH 21 22
ATOM     22  CD  ARG D 651     -69.975   7.623 -11.537  1.00 74.66 LIG 0.14  C 
BRANCH 22 23
ATOM     23  NE  ARG D 651     -69.968   6.220 -11.970  1.00 75.25 LIG-0.23  N 
ATOM     24 HE   ARG D 651     -69.209   5.816 -11.976  1.00 75.25 LIG 0.18  HD
ATOM     25  CZ  ARG D 651     -71.033   5.519 -12.353  1.00 78.75 LIG 0.67  C 
ATOM     26  NH2 ARG D 651     -70.893   4.251 -12.726  1.00 79.25 LIG-0.23  N 
ATOM     27  NH1 ARG D 651     -72.234   6.068 -12.349  1.00 78.43 LIG-0.23  N 
ATOM     28 2HH2 ARG D 651     -71.580   3.797 -12.974  1.00 79.25 LIG 0.17  HD
ATOM     29 1HH2 ARG D 651     -70.115   3.885 -12.719  1.00 79.25 LIG 0.17  HD
ATOM     30 2HH1 ARG D 651     -72.918   5.610 -12.598  1.00 78.43 LIG 0.17  HD
ATOM     31 1HH1 ARG D 651     -72.332   6.884 -12.097  1.00 78.43 LIG 0.17  HD
ENDBRANCH 22 23
ENDBRANCH 21 22
ENDBRANCH 20 21
ENDBRANCH 17 20
ENDBRANCH 14 17
ENDBRANCH 12 13
BRANCH 12 32
ATOM     32  CB  ARG D 650     -62.817   7.242 -10.856  1.00 66.96 LIG 0.04  C 
BRANCH 32 33
ATOM     33  CG  ARG D 650     -61.433   7.444 -10.243  1.00 73.73 LIG 0.02  C 
BRANCH 33 34
ATOM     34  CD  ARG D 650     -60.628   6.137 -10.234  1.00 75.05 LIG 0.14  C 
BRANCH 34 35
ATOM     35  NE  ARG D 650     -59.991   5.825 -11.503  1.00 81.10 LIG-0.23  N 
ATOM     36 HE   ARG D 650     -60.470   5.864 -12.216  1.00 81.10 LIG 0.18  HD
ATOM     37  CZ  ARG D 650     -58.710   5.483 -11.629  1.00 84.47 LIG 0.67  C 
ATOM     38  NH1 ARG D 650     -57.935   5.400 -10.555  1.00 76.84 LIG-0.23  N 
ATOM     39  NH2 ARG D 650     -58.196   5.216 -12.831  1.00 84.76 LIG-0.23  N 
ATOM     40 1HH1 ARG D 650     -58.260   5.569  -9.777  1.00 76.84 LIG 0.17  HD
ATOM     41 2HH1 ARG D 650     -57.108   5.179 -10.638  1.00 76.84 LIG 0.17  HD
ATOM     42 1HH2 ARG D 650     -58.693   5.265 -13.532  1.00 84.76 LIG 0.17  HD
ATOM     43 2HH2 ARG D 650     -57.369   4.996 -12.905  1.00 84.76 LIG 0.17  HD
ENDBRANCH 34 35
ENDBRANCH 33 34
ENDBRANCH 32 33
ENDBRANCH 12 32
ENDBRANCH 9 12
ENDBRANCH 4 8
BRANCH 1 44
ATOM     44  CA  THR D 648     -63.774  10.221  -3.591  1.00 55.33 LIG 0.20  C 
BRANCH 44 45
ATOM     45  CB  THR D 648     -64.068  11.711  -3.937  1.00 57.91 LIG 0.15  C 
ATOM     46  CG2 THR D 648     -65.518  11.894  -4.406  1.00 54.65 LIG 0.04  C 
BRANCH 45 47
ATOM     47 OG1  THR D 648     -63.837  12.529  -2.778  1.00 51.58 LIG-0.39  OA
ATOM     48 HG1  THR D 648     -63.015  12.543  -2.604  1.00 51.58 LIG 0.21  HD
ENDBRANCH 45 47
ENDBRANCH 44 45
BRANCH 44 49
ATOM     49  N   THR D 648     -62.573  10.088  -2.774  1.00 49.85 LIG-0.34  N 
ATOM     50 H    THR D 648     -62.000  10.721  -2.876  1.00 49.85 LIG 0.16  HD
ATOM     51  C   LEU D 647     -62.408   9.060  -1.949  1.00 48.49 LIG 0.24  C 
ATOM     52 O    LEU D 647     -63.210   8.127  -1.869  1.00 50.57 LIG-0.27  OA
BRANCH 51 53
ATOM     53  CA  LEU D 647     -61.166   9.094  -1.073  1.00 48.52 LIG 0.18  C 
BRANCH 53 54
ATOM     54  CB  LEU D 647     -61.474   9.892   0.195  1.00 42.08 LIG 0.04  C 
BRANCH 54 55
ATOM     55  CG  LEU D 647     -61.049   9.305   1.541  1.00 43.63 LIG-0.02  C 
ATOM     56  CD1 LEU D 647     -59.587   8.848   1.477  1.00 34.09 LIG 0.01  C 
ATOM     57  CD2 LEU D 647     -61.253  10.318   2.639  1.00 37.87 LIG 0.01  C 
ENDBRANCH 54 55
ENDBRANCH 53 54
BRANCH 53 58
ATOM     58  N   LEU D 647     -60.010   9.659  -1.766  1.00 49.21 LIG-0.35  N 
ATOM     59  C   LEU D 646     -58.936   8.927  -2.056  1.00 51.75 LIG 0.24  C 
ATOM     60 O    LEU D 646     -58.870   7.714  -1.850  1.00 46.22 LIG-0.27  OA
ATOM     61 H    LEU D 647     -60.090  10.492  -1.965  1.00 49.21 LIG 0.16  HD
BRANCH 59 62
ATOM     62  CA  LEU D 646     -57.765   9.667  -2.689  1.00 53.11 LIG 0.18  C 
BRANCH 62 63
ATOM     63  N   LEU D 646     -58.211  10.548  -3.761  1.00 56.32 LIG-0.35  N 
ATOM     64  C   ILE D 645     -58.895  10.078  -4.800  1.00 63.27 LIG 0.26  C 
ATOM     65 O    ILE D 645     -59.167   8.879  -4.937  1.00 63.46 LIG-0.27  OA
ATOM     66 H    LEU D 646     -57.996  11.374  -3.659  1.00 56.32 LIG 0.16  HD
BRANCH 64 67
ATOM     67  CA  ILE D 645     -59.364  11.108  -5.831  1.00 63.54 LIG 0.40  C 
ATOM     68  N   ILE D 645     -60.575  11.809  -5.405  1.00 63.63 LIG 0.61  N 
BRANCH 67 69
ATOM     69  CB  ILE D 645     -58.191  12.073  -6.084  1.00 61.73 LIG 0.03  C 
ATOM     70  CG2 ILE D 645     -57.217  11.455  -7.093  1.00 57.36 LIG 0.01  C 
BRANCH 69 71
ATOM     71  CG1 ILE D 645     -58.689  13.447  -6.548  1.00 65.03 LIG 0.00  C 
ATOM     72  CD1 ILE D 645     -57.814  14.600  -6.076  1.00 60.49 LIG 0.01  C 
ENDBRANCH 69 71
ENDBRANCH 67 69
ENDBRANCH 64 67
ENDBRANCH 62 63
BRANCH 62 73
ATOM     73  CB  LEU D 646     -57.007  10.461  -1.629  1.00 52.76 LIG 0.04  C 
BRANCH 73 74
ATOM     74  CG  LEU D 646     -57.607  11.825  -1.299  1.00 58.95 LIG-0.02  C 
ATOM     75  CD1 LEU D 646     -58.426  11.751  -0.008  1.00 55.02 LIG 0.01  C 
ATOM     76  CD2 LEU D 646     -56.498  12.868  -1.193  1.00 54.54 LIG 0.01  C 
ENDBRANCH 73 74
ENDBRANCH 62 73
ENDBRANCH 59 62
ENDBRANCH 53 58
ENDBRANCH 51 53
ENDBRANCH 44 49
ENDBRANCH 1 44
TORSDOF 28
ENDMDL
MODEL 3
USER: ADFR SOLUTION from run 22
USER: SCORE 21.291349 LL:  -5.085 LR: -19.421 RR:   0.000 FEB: -11.069
USER: RMSD 2.001979
USER: SEED 21
USER: STATUS no improvement in best in 3 clusters for 5 generations
USER: GENES 30
USER: genes 0 Translation |==|  0.48225 0.54882 0.57864
USER: genes 1 Rotation |==|  0.49773 0.49016 0.51310 0.99973
USER: genes 2 Torsion [N]-CA--C-[N] |==|  0.46680
USER: genes 3 Torsion [C]-N--CA-[CB] |==|  0.39563
USER: genes 4 Torsion [N]-CA--C-[N] |==|  0.55273
USER: genes 5 Torsion [C]-N--CA-[CB] |==|  0.36069
USER: genes 6 Torsion [N]-CA--C-[O] |==|  0.29414
USER: genes 7 Torsion [N]-CA--CB-[CG] |==|  0.67907
USER: genes 8 Torsion [CA]-CB--CG-[CD] |==|  0.93708
USER: genes 9 Torsion [CB]-CG--CD-[NE] |==|  0.78119
USER: genes 10 Torsion [CG]-CD--NE-[HE] |==|  0.19280
USER: genes 11 Torsion [N]-CA--CB-[CG] |==|  0.07184
USER: genes 12 Torsion [CA]-CB--CG-[CD] |==|  0.45728
USER: genes 13 Torsion [CB]-CG--CD-[NE] |==|  0.27679
USER: genes 14 Torsion [CG]-CD--NE-[CZ] |==|  0.36099
USER: genes 15 Torsion [N]-C--CA-[N] |==|  0.36263
USER: genes 16 Torsion [C]-CA--CB-[CG2] |==|  0.23007
USER: genes 17 Torsion [CA]-CB--OG1-[HG1] |==|  0.19532
USER: genes 18 Torsion [C]-CA--N-[C] |==|  0.69643
USER: genes 19 Torsion [N]-C--CA-[N] |==|  0.90833
USER: genes 20 Torsion [C]-CA--CB-[CG] |==|  0.45995
USER: genes 21 Torsion [CA]-CB--CG-[CD1] |==|  0.62098
USER: genes 22 Torsion [C]-CA--N-[C] |==|  0.69549
USER: genes 23 Torsion [N]-C--CA-[N] |==|  0.75009
USER: genes 24 Torsion [C]-CA--N-[C] |==|  0.79622
USER: genes 25 Torsion [N]-C--CA-[N] |==|  0.34194
USER: genes 26 Torsion [C]-CA--CB-[CG2] |==|  0.10391
USER: genes 27 Torsion [CA]-CB--CG1-[CD1] |==|  0.21097
USER: genes 28 Torsion [C]-CA--CB-[CG] |==|  0.39480
USER: genes 29 Torsion [CA]-CB--CG-[CD1] |==|  0.48888
ROOT
ATOM      1  C   THR D 648     -63.434   9.614  -4.977  1.00 57.47 LIG 0.24  C 
ATOM      2 O    THR D 648     -62.370   9.802  -5.570  1.00 58.33 LIG-0.27  OA
ATOM      3  N   PRO D 649     -64.356   8.733  -5.401  1.00 55.77 LIG-0.34  N 
ATOM      4  CA  PRO D 649     -64.116   7.829  -6.536  1.00 54.43 LIG 0.18  C 
ATOM      5  CB  PRO D 649     -65.199   6.761  -6.350  1.00 56.30 LIG 0.04  C 
ATOM      6  CG  PRO D 649     -66.309   7.472  -5.645  1.00 52.90 LIG 0.02  C 
ATOM      7  CD  PRO D 649     -65.613   8.409  -4.696  1.00 52.65 LIG 0.13  C 
ENDROOT
BRANCH 4 8
ATOM      8  C   PRO D 649     -64.241   8.446  -7.934  1.00 62.44 LIG 0.24  C 
ATOM      9  N   ARG D 650     -63.787   7.704  -8.943  1.00 65.13 LIG-0.35  N 
ATOM     10 H    ARG D 650     -63.267   7.027  -8.836  1.00 65.13 LIG 0.16  HD
ATOM     11 O    PRO D 649     -64.739   9.562  -8.080  1.00 64.48 LIG-0.27  OA
BRANCH 9 12
ATOM     12  CA  ARG D 650     -64.132   7.973 -10.342  1.00 68.90 LIG 0.18  C 
BRANCH 12 13
ATOM     13  C   ARG D 650     -65.317   7.091 -10.740  1.00 70.53 LIG 0.24  C 
ATOM     14  N   ARG D 651     -65.526   6.902 -12.039  1.00 72.55 LIG-0.35  N 
ATOM     15 H    ARG D 651     -65.011   7.187 -12.665  1.00 72.55 LIG 0.16  HD
ATOM     16 O    ARG D 650     -66.044   6.595  -9.876  1.00 68.24 LIG-0.27  OA
BRANCH 14 17
ATOM     17  CA  ARG D 651     -66.702   6.163 -12.493  1.00 72.50 LIG 0.16  C 
BRANCH 17 18
ATOM     18  C   ARG D 651     -66.310   4.779 -13.015  1.00 69.52 LIG 0.22  C 
ATOM     19 O    ARG D 651     -66.544   3.759 -12.357  1.00 68.10 LIG-0.29  OA
ENDBRANCH 17 18
BRANCH 17 20
ATOM     20  CB  ARG D 651     -67.469   6.935 -13.588  1.00 76.74 LIG 0.04  C 
BRANCH 20 21
ATOM     21  CG  ARG D 651     -68.929   7.434 -13.295  1.00 75.60 LIG 0.02  C 
BRANCH 21 22
ATOM     22  CD  ARG D 651     -69.716   6.693 -12.180  1.00 74.66 LIG 0.14  C 
BRANCH 22 23
ATOM     23  NE  ARG D 651     -70.292   5.402 -12.577  1.00 75.25 LIG-0.23  N 
ATOM     24 HE   ARG D 651     -69.743   4.758 -12.726  1.00 75.25 LIG 0.18  HD
ATOM     25  CZ  ARG D 651     -71.590   5.142 -12.725  1.00 78.75 LIG 0.67  C 
ATOM     26  NH2 ARG D 651     -71.984   3.927 -13.091  1.00 79.25 LIG-0.23  N 
ATOM     27  NH1 ARG D 651     -72.492   6.078 -12.492  1.00 78.43 LIG-0.23  N 
ATOM     28 2HH2 ARG D 651     -72.821   3.757 -13.188  1.00 79.25 LIG 0.17  HD
ATOM     29 1HH2 ARG D 651     -71.402   3.311 -13.232  1.00 79.25 LIG 0.17  HD
ATOM     30 2HH1 ARG D 651     -73.328   5.903 -12.590  1.00 78.43 LIG 0.17  HD
ATOM     31 1HH1 ARG D 651     -72.242   6.862 -12.243  1.00 78.43 LIG 0.17  HD
ENDBRANCH 22 23
ENDBRANCH 21 22
ENDBRANCH 20 21
ENDBRANCH 17 20
ENDBRANCH 14 17
ENDBRANCH 12 13
BRANCH 12 32
ATOM     32  CB  ARG D 650     -62.935   7.712 -11.268  1.00 66.96 LIG 0.04  C 
BRANCH 32 33
ATOM     33  CG  ARG D 650     -61.916   6.703 -10.743  1.00 73.73 LIG 0.02  C 
BRANCH 33 34
ATOM     34  CD  ARG D 650     -60.978   6.220 -11.858  1.00 75.05 LIG 0.14  C 
BRANCH 34 35
ATOM     35  NE  ARG D 650     -59.683   6.880 -11.870  1.00 81.10 LIG-0.23  N 
ATOM     36 HE   ARG D 650     -59.667   7.740 -11.843  1.00 81.10 LIG 0.18  HD
ATOM     37  CZ  ARG D 650     -58.519   6.236 -11.921  1.00 84.47 LIG 0.67  C 
ATOM     38  NH1 ARG D 650     -58.495   4.910 -11.974  1.00 76.84 LIG-0.23  N 
ATOM     39  NH2 ARG D 650     -57.370   6.913 -11.923  1.00 84.76 LIG-0.23  N 
ATOM     40 1HH1 ARG D 650     -59.232   4.466 -11.976  1.00 76.84 LIG 0.17  HD
ATOM     41 2HH1 ARG D 650     -57.742   4.494 -12.007  1.00 76.84 LIG 0.17  HD
ATOM     42 1HH2 ARG D 650     -57.378   7.773 -11.891  1.00 84.76 LIG 0.17  HD
ATOM     43 2HH2 ARG D 650     -56.622   6.491 -11.956  1.00 84.76 LIG 0.17  HD
ENDBRANCH 34 35
ENDBRANCH 33 34
ENDBRANCH 32 33
ENDBRANCH 12 32
ENDBRANCH 9 12
ENDBRANCH 4 8
BRANCH 1 44
ATOM     44  CA  THR D 648     -63.743  10.364  -3.680  1.00 55.33 LIG 0.20  C 
BRANCH 44 45
ATOM     45  CB  THR D 648     -64.128  11.844  -3.972  1.00 57.91 LIG 0.15  C 
ATOM     46  CG2 THR D 648     -65.609  11.964  -4.359  1.00 54.65 LIG 0.04  C 
BRANCH 45 47
ATOM     47 OG1  THR D 648     -63.876  12.647  -2.808  1.00 51.58 LIG-0.39  OA
ATOM     48 HG1  THR D 648     -63.047  12.721  -2.693  1.00 51.58 LIG 0.21  HD
ENDBRANCH 45 47
ENDBRANCH 44 45
BRANCH 44 49
ATOM     49  N   THR D 648     -62.589  10.276  -2.791  1.00 49.85 LIG-0.34  N 
ATOM     50 H    THR D 648     -61.908  10.736  -3.046  1.00 49.85 LIG 0.16  HD
ATOM     51  C   LEU D 647     -62.619   9.539  -1.688  1.00 48.49 LIG 0.24  C 
ATOM     52 O    LEU D 647     -63.582   8.834  -1.378  1.00 50.57 LIG-0.27  OA
BRANCH 51 53
ATOM     53  CA  LEU D 647     -61.394   9.619  -0.791  1.00 48.52 LIG 0.18  C 
BRANCH 53 54
ATOM     54  CB  LEU D 647     -61.591  10.749   0.220  1.00 42.08 LIG 0.04  C 
BRANCH 54 55
ATOM     55  CG  LEU D 647     -60.657  10.809   1.429  1.00 43.63 LIG-0.02  C 
ATOM     56  CD1 LEU D 647     -61.461  11.114   2.699  1.00 34.09 LIG 0.01  C 
ATOM     57  CD2 LEU D 647     -59.898   9.513   1.565  1.00 37.87 LIG 0.01  C 
ENDBRANCH 54 55
ENDBRANCH 53 54
BRANCH 53 58
ATOM     58  N   LEU D 647     -60.161   9.820  -1.550  1.00 49.21 LIG-0.35  N 
ATOM     59  C   LEU D 646     -59.243   8.862  -1.668  1.00 51.75 LIG 0.24  C 
ATOM     60 O    LEU D 646     -59.400   7.720  -1.232  1.00 46.22 LIG-0.27  OA
ATOM     61 H    LEU D 647     -60.088  10.600  -1.905  1.00 49.21 LIG 0.16  HD
BRANCH 59 62
ATOM     62  CA  LEU D 646     -57.962   9.240  -2.400  1.00 53.11 LIG 0.18  C 
BRANCH 62 63
ATOM     63  N   LEU D 646     -58.073   8.983  -3.830  1.00 56.32 LIG-0.35  N 
ATOM     64  C   ILE D 645     -58.046   7.745  -4.313  1.00 63.27 LIG 0.26  C 
ATOM     65 O    ILE D 645     -57.897   6.748  -3.595  1.00 63.46 LIG-0.27  OA
ATOM     66 H    LEU D 646     -58.156   9.689  -4.315  1.00 56.32 LIG 0.16  HD
BRANCH 64 67
ATOM     67  CA  ILE D 645     -58.235   7.597  -5.825  1.00 63.54 LIG 0.40  C 
ATOM     68  N   ILE D 645     -57.121   6.893  -6.458  1.00 63.63 LIG 0.61  N 
BRANCH 67 69
ATOM     69  CB  ILE D 645     -59.580   6.881  -6.052  1.00 61.73 LIG 0.03  C 
ATOM     70  CG2 ILE D 645     -60.607   7.364  -5.022  1.00 57.36 LIG 0.01  C 
BRANCH 69 71
ATOM     71  CG1 ILE D 645     -60.082   7.081  -7.487  1.00 65.03 LIG 0.00  C 
ATOM     72  CD1 ILE D 645     -59.346   6.228  -8.511  1.00 60.49 LIG 0.01  C 
ENDBRANCH 69 71
ENDBRANCH 67 69
ENDBRANCH 64 67
ENDBRANCH 62 63
BRANCH 62 73
ATOM     73  CB  LEU D 646     -57.623  10.706  -2.146  1.00 52.76 LIG 0.04  C 
BRANCH 73 74
ATOM     74  CG  LEU D 646     -56.134  11.000  -1.985  1.00 58.95 LIG-0.02  C 
ATOM     75  CD1 LEU D 646     -55.899  12.505  -1.835  1.00 55.02 LIG 0.01  C 
ATOM     76  CD2 LEU D 646     -55.580  10.231  -0.789  1.00 54.54 LIG 0.01  C 
ENDBRANCH 73 74
ENDBRANCH 62 73
ENDBRANCH 59 62
ENDBRANCH 53 58
ENDBRANCH 51 53
ENDBRANCH 44 49
ENDBRANCH 1 44
TORSDOF 28
ENDMDL
MODEL 4
USER: ADFR SOLUTION from run 153
USER: SCORE 23.478078 LL:  -5.263 LR: -19.344 RR:   0.000 FEB: -10.992
USER: RMSD 3.698815
USER: SEED 152
USER: STATUS no improvement in best in 4 clusters for 5 generations
USER: GENES 30
USER: genes 0 Translation |==|  0.47072 0.54328 0.58027
USER: genes 1 Rotation |==|  0.49491 0.52892 0.51626 0.99887
USER: genes 2 Torsion [N]-CA--C-[N] |==|  0.42484
USER: genes 3 Torsion [C]-N--CA-[CB] |==|  0.51154
USER: genes 4 Torsion [N]-CA--C-[N] |==|  0.36815
USER: genes 5 Torsion [C]-N--CA-[CB] |==|  0.83444
USER: genes 6 Torsion [N]-CA--C-[O] |==|  0.05098
USER: genes 7 Torsion [N]-CA--CB-[CG] |==|  0.66178
USER: genes 8 Torsion [CA]-CB--CG-[CD] |==|  0.79908
USER: genes 9 Torsion [CB]-CG--CD-[NE] |==|  0.69091
USER: genes 10 Torsion [CG]-CD--NE-[HE] |==|  0.30508
USER: genes 11 Torsion [N]-CA--CB-[CG] |==|  0.51003
USER: genes 12 Torsion [CA]-CB--CG-[CD] |==|  0.76125
USER: genes 13 Torsion [CB]-CG--CD-[NE] |==|  0.74500
USER: genes 14 Torsion [CG]-CD--NE-[CZ] |==|  0.41127
USER: genes 15 Torsion [N]-C--CA-[N] |==|  0.34072
USER: genes 16 Torsion [C]-CA--CB-[CG2] |==|  0.21265
USER: genes 17 Torsion [CA]-CB--OG1-[HG1] |==|  0.17102
USER: genes 18 Torsion [C]-CA--N-[C] |==|  0.75143
USER: genes 19 Torsion [N]-C--CA-[N] |==|  0.91343
USER: genes 20 Torsion [C]-CA--CB-[CG] |==|  0.56565
USER: genes 21 Torsion [CA]-CB--CG-[CD1] |==|  0.45509
USER: genes 22 Torsion [C]-CA--N-[C] |==|  0.66667
USER: genes 23 Torsion [N]-C--CA-[N] |==|  0.88480
USER: genes 24 Torsion [C]-CA--N-[C] |==|  0.83778
USER: genes 25 Torsion [N]-C--CA-[N] |==|  0.77742
USER: genes 26 Torsion [C]-CA--CB-[CG2] |==|  0.19791
USER: genes 27 Torsion [CA]-CB--CG1-[CD1] |==|  0.41915
USER: genes 28 Torsion [C]-CA--CB-[CG] |==|  0.71499
USER: genes 29 Torsion [CA]-CB--CG-[CD1] |==|  0.30398
ROOT
ATOM      1  C   THR D 648     -63.720   9.527  -4.933  1.00 57.47 LIG 0.24  C 
ATOM      2 O    THR D 648     -62.762   9.716  -5.685  1.00 58.33 LIG-0.27  OA
ATOM      3  N   PRO D 649     -64.685   8.629  -5.197  1.00 55.77 LIG-0.34  N 
ATOM      4  CA  PRO D 649     -64.610   7.709  -6.341  1.00 54.43 LIG 0.18  C 
ATOM      5  CB  PRO D 649     -65.638   6.633  -5.975  1.00 56.30 LIG 0.04  C 
ATOM      6  CG  PRO D 649     -66.635   7.344  -5.118  1.00 52.90 LIG 0.02  C 
ATOM      7  CD  PRO D 649     -65.813   8.304  -4.302  1.00 52.65 LIG 0.13  C 
ENDROOT
BRANCH 4 8
ATOM      8  C   PRO D 649     -64.957   8.302  -7.712  1.00 62.44 LIG 0.24  C 
ATOM      9  N   ARG D 650     -64.388   7.715  -8.765  1.00 65.13 LIG-0.35  N 
ATOM     10 H    ARG D 650     -63.712   7.186  -8.703  1.00 65.13 LIG 0.16  HD
ATOM     11 O    PRO D 649     -65.723   9.262  -7.801  1.00 64.48 LIG-0.27  OA
BRANCH 9 12
ATOM     12  CA  ARG D 650     -64.861   7.915 -10.137  1.00 68.90 LIG 0.18  C 
BRANCH 12 13
ATOM     13  C   ARG D 650     -66.355   7.593 -10.199  1.00 70.53 LIG 0.24  C 
ATOM     14  N   ARG D 651     -67.142   8.468 -10.818  1.00 72.55 LIG-0.35  N 
ATOM     15 H    ARG D 651     -66.864   9.166 -11.237  1.00 72.55 LIG 0.16  HD
ATOM     16 O    ARG D 650     -66.795   6.565  -9.679  1.00 68.24 LIG-0.27  OA
BRANCH 14 17
ATOM     17  CA  ARG D 651     -68.590   8.281 -10.820  1.00 72.50 LIG 0.16  C 
BRANCH 17 18
ATOM     18  C   ARG D 651     -69.153   8.350  -9.399  1.00 69.52 LIG 0.22  C 
ATOM     19 O    ARG D 651     -68.505   8.864  -8.480  1.00 68.10 LIG-0.29  OA
ENDBRANCH 17 18
BRANCH 17 20
ATOM     20  CB  ARG D 651     -68.988   6.940 -11.474  1.00 76.74 LIG 0.04  C 
BRANCH 20 21
ATOM     21  CG  ARG D 651     -69.948   6.947 -12.717  1.00 75.60 LIG 0.02  C 
BRANCH 21 22
ATOM     22  CD  ARG D 651     -71.440   7.286 -12.452  1.00 74.66 LIG 0.14  C 
BRANCH 22 23
ATOM     23  NE  ARG D 651     -72.376   6.170 -12.635  1.00 75.25 LIG-0.23  N 
ATOM     24 HE   ARG D 651     -72.742   5.845 -11.928  1.00 75.25 LIG 0.18  HD
ATOM     25  CZ  ARG D 651     -72.708   5.616 -13.800  1.00 78.75 LIG 0.67  C 
ATOM     26  NH2 ARG D 651     -73.569   4.604 -13.831  1.00 79.25 LIG-0.23  N 
ATOM     27  NH1 ARG D 651     -72.201   6.076 -14.929  1.00 78.43 LIG-0.23  N 
ATOM     28 2HH2 ARG D 651     -73.784   4.245 -14.582  1.00 79.25 LIG 0.17  HD
ATOM     29 1HH2 ARG D 651     -73.911   4.308 -13.100  1.00 79.25 LIG 0.17  HD
ATOM     30 2HH1 ARG D 651     -72.420   5.714 -15.678  1.00 78.43 LIG 0.17  HD
ATOM     31 1HH1 ARG D 651     -71.653   6.739 -14.916  1.00 78.43 LIG 0.17  HD
ENDBRANCH 22 23
ENDBRANCH 21 22
ENDBRANCH 20 21
ENDBRANCH 17 20
ENDBRANCH 14 17
ENDBRANCH 12 13
BRANCH 12 32
ATOM     32  CB  ARG D 650     -64.081   7.036 -11.126  1.00 66.96 LIG 0.04  C 
BRANCH 32 33
ATOM     33  CG  ARG D 650     -64.443   7.236 -12.596  1.00 73.73 LIG 0.02  C 
BRANCH 33 34
ATOM     34  CD  ARG D 650     -65.645   6.370 -13.001  1.00 75.05 LIG 0.14  C 
BRANCH 34 35
ATOM     35  NE  ARG D 650     -65.283   5.067 -13.533  1.00 81.10 LIG-0.23  N 
ATOM     36 HE   ARG D 650     -64.545   4.999 -13.970  1.00 81.10 LIG 0.18  HD
ATOM     37  CZ  ARG D 650     -66.023   3.970 -13.384  1.00 84.47 LIG 0.67  C 
ATOM     38  NH1 ARG D 650     -67.173   4.029 -12.725  1.00 76.84 LIG-0.23  N 
ATOM     39  NH2 ARG D 650     -65.620   2.807 -13.898  1.00 84.76 LIG-0.23  N 
ATOM     40 1HH1 ARG D 650     -67.441   4.775 -12.393  1.00 76.84 LIG 0.17  HD
ATOM     41 2HH1 ARG D 650     -67.651   3.320 -12.629  1.00 76.84 LIG 0.17  HD
ATOM     42 1HH2 ARG D 650     -64.877   2.762 -14.329  1.00 84.76 LIG 0.17  HD
ATOM     43 2HH2 ARG D 650     -66.103   2.103 -13.798  1.00 84.76 LIG 0.17  HD
ENDBRANCH 34 35
ENDBRANCH 33 34
ENDBRANCH 32 33
ENDBRANCH 12 32
ENDBRANCH 9 12
ENDBRANCH 4 8
BRANCH 1 44
ATOM     44  CA  THR D 648     -63.835  10.295  -3.615  1.00 55.33 LIG 0.20  C 
BRANCH 44 45
ATOM     45  CB  THR D 648     -64.085  11.810  -3.875  1.00 57.91 LIG 0.15  C 
ATOM     46  CG2 THR D 648     -65.541  12.067  -4.284  1.00 54.65 LIG 0.04  C 
BRANCH 45 47
ATOM     47 OG1  THR D 648     -63.787  12.558  -2.685  1.00 51.58 LIG-0.39  OA
ATOM     48 HG1  THR D 648     -62.977  12.458  -2.486  1.00 51.58 LIG 0.21  HD
ENDBRANCH 45 47
ENDBRANCH 44 45
BRANCH 44 49
ATOM     49  N   THR D 648     -62.624  10.079  -2.829  1.00 49.85 LIG-0.34  N 
ATOM     50 H    THR D 648     -62.002  10.655  -2.968  1.00 49.85 LIG 0.16  HD
ATOM     51  C   LEU D 647     -62.524   9.065  -1.978  1.00 48.49 LIG 0.24  C 
ATOM     52 O    LEU D 647     -63.402   8.210  -1.845  1.00 50.57 LIG-0.27  OA
BRANCH 51 53
ATOM     53  CA  LEU D 647     -61.257   9.014  -1.139  1.00 48.52 LIG 0.18  C 
BRANCH 53 54
ATOM     54  CB  LEU D 647     -61.500   9.755   0.176  1.00 42.08 LIG 0.04  C 
BRANCH 54 55
ATOM     55  CG  LEU D 647     -60.291  10.316   0.925  1.00 43.63 LIG-0.02  C 
ATOM     56  CD1 LEU D 647     -60.748  11.342   1.968  1.00 34.09 LIG 0.01  C 
ATOM     57  CD2 LEU D 647     -59.513   9.196   1.571  1.00 37.87 LIG 0.01  C 
ENDBRANCH 54 55
ENDBRANCH 53 54
BRANCH 53 58
ATOM     58  N   LEU D 647     -60.103   9.577  -1.839  1.00 49.21 LIG-0.35  N 
ATOM     59  C   LEU D 646     -59.014   8.854  -2.095  1.00 51.75 LIG 0.24  C 
ATOM     60 O    LEU D 646     -58.929   7.649  -1.850  1.00 46.22 LIG-0.27  OA
ATOM     61 H    LEU D 647     -60.195  10.401  -2.065  1.00 49.21 LIG 0.16  HD
BRANCH 59 62
ATOM     62  CA  LEU D 646     -57.849   9.594  -2.739  1.00 53.11 LIG 0.18  C 
BRANCH 62 63
ATOM     63  N   LEU D 646     -58.310  10.512  -3.773  1.00 56.32 LIG-0.35  N 
ATOM     64  C   ILE D 645     -59.010  10.080  -4.818  1.00 63.27 LIG 0.26  C 
ATOM     65 O    ILE D 645     -59.285   8.886  -4.993  1.00 63.46 LIG-0.27  OA
ATOM     66 H    LEU D 646     -58.092  11.334  -3.645  1.00 56.32 LIG 0.16  HD
BRANCH 64 67
ATOM     67  CA  ILE D 645     -59.494  11.145  -5.804  1.00 63.54 LIG 0.40  C 
ATOM     68  N   ILE D 645     -60.696  11.833  -5.335  1.00 63.63 LIG 0.61  N 
BRANCH 67 69
ATOM     69  CB  ILE D 645     -58.323  12.118  -6.042  1.00 61.73 LIG 0.03  C 
ATOM     70  CG2 ILE D 645     -57.236  11.429  -6.873  1.00 57.36 LIG 0.01  C 
BRANCH 69 71
ATOM     71  CG1 ILE D 645     -58.802  13.416  -6.702  1.00 65.03 LIG 0.00  C 
ATOM     72  CD1 ILE D 645     -57.949  14.626  -6.346  1.00 60.49 LIG 0.01  C 
ENDBRANCH 69 71
ENDBRANCH 67 69
ENDBRANCH 64 67
ENDBRANCH 62 63
BRANCH 62 73
ATOM     73  CB  LEU D 646     -57.049  10.345  -1.679  1.00 52.76 LIG 0.04  C 
BRANCH 73 74
ATOM     74  CG  LEU D 646     -57.311  11.847  -1.622  1.00 58.95 LIG-0.02  C 
ATOM     75  CD1 LEU D 646     -58.083  12.208  -0.350  1.00 55.02 LIG 0.01  C 
ATOM     76  CD2 LEU D 646     -55.991  12.608  -1.705  1.00 54.54 LIG 0.01  C 
ENDBRANCH 73 74
ENDBRANCH 62 73
ENDBRANCH 59 62
ENDBRANCH 53 58
ENDBRANCH 51 53
ENDBRANCH 44 49
ENDBRANCH 1 44
TORSDOF 28
ENDMDL
MODEL 5
USER: ADFR SOLUTION from run 104
USER: SCORE 21.943206 LL:  -4.980 LR: -18.929 RR:   0.000 FEB: -10.577
USER: RMSD 3.029562
USER: SEED 103
USER: STATUS no improvement in best in 8 clusters for 5 generations
USER: GENES 30
USER: genes 0 Translation |==|  0.47491 0.54352 0.58179
USER: genes 1 Rotation |==|  0.48337 0.50060 0.49870 0.99972
USER: genes 2 Torsion [N]-CA--C-[N] |==|  0.39485
USER: genes 3 Torsion [C]-N--CA-[CB] |==|  0.52225
USER: genes 4 Torsion [N]-CA--C-[N] |==|  0.43674
USER: genes 5 Torsion [C]-N--CA-[CB] |==|  0.82565
USER: genes 6 Torsion [N]-CA--C-[O] |==|  0.15054
USER: genes 7 Torsion [N]-CA--CB-[CG] |==|  0.89812
USER: genes 8 Torsion [CA]-CB--CG-[CD] |==|  0.76771
USER: genes 9 Torsion [CB]-CG--CD-[NE] |==|  0.68496
USER: genes 10 Torsion [CG]-CD--NE-[HE] |==|  0.22461
USER: genes 11 Torsion [N]-CA--CB-[CG] |==|  0.75280
USER: genes 12 Torsion [CA]-CB--CG-[CD] |==|  0.44124
USER: genes 13 Torsion [CB]-CG--CD-[NE] |==|  0.54017
USER: genes 14 Torsion [CG]-CD--NE-[CZ] |==|  0.48876
USER: genes 15 Torsion [N]-C--CA-[N] |==|  0.34786
USER: genes 16 Torsion [C]-CA--CB-[CG2] |==|  0.21588
USER: genes 17 Torsion [CA]-CB--OG1-[HG1] |==|  0.18275
USER: genes 18 Torsion [C]-CA--N-[C] |==|  0.73610
USER: genes 19 Torsion [N]-C--CA-[N] |==|  0.91901
USER: genes 20 Torsion [C]-CA--CB-[CG] |==|  0.60069
USER: genes 21 Torsion [CA]-CB--CG-[CD1] |==|  0.48173
USER: genes 22 Torsion [C]-CA--N-[C] |==|  0.66364
USER: genes 23 Torsion [N]-C--CA-[N] |==|  0.74663
USER: genes 24 Torsion [C]-CA--N-[C] |==|  0.84678
USER: genes 25 Torsion [N]-C--CA-[N] |==|  0.32088
USER: genes 26 Torsion [C]-CA--CB-[CG2] |==|  0.09069
USER: genes 27 Torsion [CA]-CB--CG1-[CD1] |==|  0.34135
USER: genes 28 Torsion [C]-CA--CB-[CG] |==|  0.29455
USER: genes 29 Torsion [CA]-CB--CG-[CD1] |==|  0.07168
ROOT
ATOM      1  C   THR D 648     -63.616   9.530  -4.892  1.00 57.47 LIG 0.24  C 
ATOM      2 O    THR D 648     -62.568   9.620  -5.535  1.00 58.33 LIG-0.27  OA
ATOM      3  N   PRO D 649     -64.604   8.684  -5.229  1.00 55.77 LIG-0.34  N 
ATOM      4  CA  PRO D 649     -64.464   7.705  -6.316  1.00 54.43 LIG 0.18  C 
ATOM      5  CB  PRO D 649     -65.598   6.716  -6.027  1.00 56.30 LIG 0.04  C 
ATOM      6  CG  PRO D 649     -66.635   7.531  -5.323  1.00 52.90 LIG 0.02  C 
ATOM      7  CD  PRO D 649     -65.847   8.476  -4.458  1.00 52.65 LIG 0.13  C 
ENDROOT
BRANCH 4 8
ATOM      8  C   PRO D 649     -64.611   8.249  -7.742  1.00 62.44 LIG 0.24  C 
ATOM      9  N   ARG D 650     -63.799   7.720  -8.657  1.00 65.13 LIG-0.35  N 
ATOM     10 H    ARG D 650     -63.095   7.267  -8.459  1.00 65.13 LIG 0.16  HD
ATOM     11 O    PRO D 649     -65.442   9.121  -7.994  1.00 64.48 LIG-0.27  OA
BRANCH 9 12
ATOM     12  CA  ARG D 650     -64.029   7.860 -10.097  1.00 68.90 LIG 0.18  C 
BRANCH 12 13
ATOM     13  C   ARG D 650     -65.475   7.472 -10.410  1.00 70.53 LIG 0.24  C 
ATOM     14  N   ARG D 651     -66.008   7.956 -11.528  1.00 72.55 LIG-0.35  N 
ATOM     15 H    ARG D 651     -65.581   8.419 -12.114  1.00 72.55 LIG 0.16  HD
ATOM     16 O    ARG D 650     -66.108   6.748  -9.638  1.00 68.24 LIG-0.27  OA
BRANCH 14 17
ATOM     17  CA  ARG D 651     -67.416   7.717 -11.834  1.00 72.50 LIG 0.16  C 
BRANCH 17 18
ATOM     18  C   ARG D 651     -68.319   8.297 -10.743  1.00 69.52 LIG 0.22  C 
ATOM     19 O    ARG D 651     -68.231   9.483 -10.405  1.00 68.10 LIG-0.29  OA
ENDBRANCH 17 18
BRANCH 17 20
ATOM     20  CB  ARG D 651     -67.711   6.212 -12.010  1.00 76.74 LIG 0.04  C 
BRANCH 20 21
ATOM     21  CG  ARG D 651     -66.638   5.295 -12.699  1.00 75.60 LIG 0.02  C 
BRANCH 21 22
ATOM     22  CD  ARG D 651     -66.635   5.260 -14.251  1.00 74.66 LIG 0.14  C 
BRANCH 22 23
ATOM     23  NE  ARG D 651     -67.015   3.974 -14.847  1.00 75.25 LIG-0.23  N 
ATOM     24 HE   ARG D 651     -67.856   3.800 -14.901  1.00 75.25 LIG 0.18  HD
ATOM     25  CZ  ARG D 651     -66.174   3.052 -15.311  1.00 78.75 LIG 0.67  C 
ATOM     26  NH2 ARG D 651     -66.647   1.922 -15.827  1.00 79.25 LIG-0.23  N 
ATOM     27  NH1 ARG D 651     -64.870   3.259 -15.280  1.00 78.43 LIG-0.23  N 
ATOM     28 2HH2 ARG D 651     -66.105   1.326 -16.127  1.00 79.25 LIG 0.17  HD
ATOM     29 1HH2 ARG D 651     -67.495   1.788 -15.861  1.00 79.25 LIG 0.17  HD
ATOM     30 2HH1 ARG D 651     -64.332   2.660 -15.582  1.00 78.43 LIG 0.17  HD
ATOM     31 1HH1 ARG D 651     -64.559   3.993 -14.959  1.00 78.43 LIG 0.17  HD
ENDBRANCH 22 23
ENDBRANCH 21 22
ENDBRANCH 20 21
ENDBRANCH 17 20
ENDBRANCH 14 17
ENDBRANCH 12 13
BRANCH 12 32
ATOM     32  CB  ARG D 650     -63.053   6.988 -10.902  1.00 66.96 LIG 0.04  C 
BRANCH 32 33
ATOM     33  CG  ARG D 650     -61.730   7.660 -11.263  1.00 73.73 LIG 0.02  C 
BRANCH 33 34
ATOM     34  CD  ARG D 650     -60.643   6.623 -11.580  1.00 75.05 LIG 0.14  C 
BRANCH 34 35
ATOM     35  NE  ARG D 650     -59.296   7.166 -11.605  1.00 81.10 LIG-0.23  N 
ATOM     36 HE   ARG D 650     -59.200   8.014 -11.499  1.00 81.10 LIG 0.18  HD
ATOM     37  CZ  ARG D 650     -58.200   6.432 -11.782  1.00 84.47 LIG 0.67  C 
ATOM     38  NH1 ARG D 650     -58.300   5.120 -11.960  1.00 76.84 LIG-0.23  N 
ATOM     39  NH2 ARG D 650     -56.995   7.004 -11.788  1.00 84.76 LIG-0.23  N 
ATOM     40 1HH1 ARG D 650     -59.073   4.744 -11.960  1.00 76.84 LIG 0.17  HD
ATOM     41 2HH1 ARG D 650     -57.591   4.646 -12.074  1.00 76.84 LIG 0.17  HD
ATOM     42 1HH2 ARG D 650     -56.922   7.854 -11.676  1.00 84.76 LIG 0.17  HD
ATOM     43 2HH2 ARG D 650     -56.291   6.523 -11.903  1.00 84.76 LIG 0.17  HD
ENDBRANCH 34 35
ENDBRANCH 33 34
ENDBRANCH 32 33
ENDBRANCH 12 32
ENDBRANCH 9 12
ENDBRANCH 4 8
BRANCH 1 44
ATOM     44  CA  THR D 648     -63.827  10.369  -3.630  1.00 55.33 LIG 0.20  C 
BRANCH 44 45
ATOM     45  CB  THR D 648     -64.005  11.874  -3.987  1.00 57.91 LIG 0.15  C 
ATOM     46  CG2 THR D 648     -65.419  12.153  -4.515  1.00 54.65 LIG 0.04  C 
BRANCH 45 47
ATOM     47 OG1  THR D 648     -63.767  12.678  -2.820  1.00 51.58 LIG-0.39  OA
ATOM     48 HG1  THR D 648     -62.962  12.609  -2.591  1.00 51.58 LIG 0.21  HD
ENDBRANCH 45 47
ENDBRANCH 44 45
BRANCH 44 49
ATOM     49  N   THR D 648     -62.700  10.163  -2.726  1.00 49.85 LIG-0.34  N 
ATOM     50 H    THR D 648     -62.020  10.665  -2.884  1.00 49.85 LIG 0.16  HD
ATOM     51  C   LEU D 647     -62.752   9.265  -1.750  1.00 48.49 LIG 0.24  C 
ATOM     52 O    LEU D 647     -63.710   8.507  -1.584  1.00 50.57 LIG-0.27  OA
BRANCH 51 53
ATOM     53  CA  LEU D 647     -61.558   9.224  -0.809  1.00 48.52 LIG 0.18  C 
BRANCH 53 54
ATOM     54  CB  LEU D 647     -61.849  10.109   0.403  1.00 42.08 LIG 0.04  C 
BRANCH 54 55
ATOM     55  CG  LEU D 647     -60.694  10.905   1.012  1.00 43.63 LIG-0.02  C 
ATOM     56  CD1 LEU D 647     -61.222  11.845   2.103  1.00 34.09 LIG 0.01  C 
ATOM     57  CD2 LEU D 647     -59.650   9.967   1.564  1.00 37.87 LIG 0.01  C 
ENDBRANCH 54 55
ENDBRANCH 53 54
BRANCH 53 58
ATOM     58  N   LEU D 647     -60.320   9.643  -1.463  1.00 49.21 LIG-0.35  N 
ATOM     59  C   LEU D 646     -59.258   8.842  -1.539  1.00 51.75 LIG 0.24  C 
ATOM     60 O    LEU D 646     -59.266   7.672  -1.153  1.00 46.22 LIG-0.27  OA
ATOM     61 H    LEU D 647     -60.343  10.439  -1.788  1.00 49.21 LIG 0.16  HD
BRANCH 59 62
ATOM     62  CA  LEU D 646     -58.002   9.442  -2.157  1.00 53.11 LIG 0.18  C 
BRANCH 62 63
ATOM     63  N   LEU D 646     -57.954   9.207  -3.595  1.00 56.32 LIG-0.35  N 
ATOM     64  C   ILE D 645     -58.044   7.979  -4.097  1.00 63.27 LIG 0.26  C 
ATOM     65 O    ILE D 645     -58.142   6.970  -3.387  1.00 63.46 LIG-0.27  OA
ATOM     66 H    LEU D 646     -57.866   9.918  -4.071  1.00 56.32 LIG 0.16  HD
BRANCH 64 67
ATOM     67  CA  ILE D 645     -58.046   7.863  -5.623  1.00 63.54 LIG 0.40  C 
ATOM     68  N   ILE D 645     -56.873   7.151  -6.129  1.00 63.63 LIG 0.61  N 
BRANCH 67 69
ATOM     69  CB  ILE D 645     -59.363   7.177  -6.031  1.00 61.73 LIG 0.03  C 
ATOM     70  CG2 ILE D 645     -60.477   7.567  -5.053  1.00 57.36 LIG 0.01  C 
BRANCH 69 71
ATOM     71  CG1 ILE D 645     -59.741   7.510  -7.479  1.00 65.03 LIG 0.00  C 
ATOM     72  CD1 ILE D 645     -59.911   6.279  -8.359  1.00 60.49 LIG 0.01  C 
ENDBRANCH 69 71
ENDBRANCH 67 69
ENDBRANCH 64 67
ENDBRANCH 62 63
BRANCH 62 73
ATOM     73  CB  LEU D 646     -57.929  10.936  -1.859  1.00 52.76 LIG 0.04  C 
BRANCH 73 74
ATOM     74  CG  LEU D 646     -56.895  11.330  -0.808  1.00 58.95 LIG-0.02  C 
ATOM     75  CD1 LEU D 646     -55.767  10.297  -0.754  1.00 55.02 LIG 0.01  C 
ATOM     76  CD2 LEU D 646     -56.355  12.726  -1.108  1.00 54.54 LIG 0.01  C 
ENDBRANCH 73 74
ENDBRANCH 62 73
ENDBRANCH 59 62
ENDBRANCH 53 58
ENDBRANCH 51 53
ENDBRANCH 44 49
ENDBRANCH 1 44
TORSDOF 28
ENDMDL
MODEL 6
USER: ADFR SOLUTION from run 77
USER: SCORE 22.278363 LL:  -5.702 LR: -18.916 RR:   0.000 FEB: -10.563
USER: RMSD 2.984220
USER: SEED 76
USER: STATUS no improvement in best in 5 clusters for 5 generations
USER: GENES 30
USER: genes 0 Translation |==|  0.47644 0.54601 0.57450
USER: genes 1 Rotation |==|  0.49016 0.51760 0.52803 0.99881
USER: genes 2 Torsion [N]-CA--C-[N] |==|  0.42836
USER: genes 3 Torsion [C]-N--CA-[CB] |==|  0.52224
USER: genes 4 Torsion [N]-CA--C-[N] |==|  0.29711
USER: genes 5 Torsion [C]-N--CA-[CB] |==|  0.81343
USER: genes 6 Torsion [N]-CA--C-[O] |==|  0.23106
USER: genes 7 Torsion [N]-CA--CB-[CG] |==|  0.39991
USER: genes 8 Torsion [CA]-CB--CG-[CD] |==|  0.20902
USER: genes 9 Torsion [CB]-CG--CD-[NE] |==|  0.41443
USER: genes 10 Torsion [CG]-CD--NE-[HE] |==|  0.18206
USER: genes 11 Torsion [N]-CA--CB-[CG] |==|  0.57053
USER: genes 12 Torsion [CA]-CB--CG-[CD] |==|  0.69373
USER: genes 13 Torsion [CB]-CG--CD-[NE] |==|  0.11696
USER: genes 14 Torsion [CG]-CD--NE-[CZ] |==|  0.60900
USER: genes 15 Torsion [N]-C--CA-[N] |==|  0.34040
USER: genes 16 Torsion [C]-CA--CB-[CG2] |==|  0.22062
USER: genes 17 Torsion [CA]-CB--OG1-[HG1] |==|  0.16443
USER: genes 18 Torsion [C]-CA--N-[C] |==|  0.71446
USER: genes 19 Torsion [N]-C--CA-[N] |==|  0.90890
USER: genes 20 Torsion [C]-CA--CB-[CG] |==|  0.50132
USER: genes 21 Torsion [CA]-CB--CG-[CD1] |==|  0.54906
USER: genes 22 Torsion [C]-CA--N-[C] |==|  0.68614
USER: genes 23 Torsion [N]-C--CA-[N] |==|  0.73031
USER: genes 24 Torsion [C]-CA--N-[C] |==|  0.80843
USER: genes 25 Torsion [N]-C--CA-[N] |==|  0.33941
USER: genes 26 Torsion [C]-CA--CB-[CG2] |==|  0.10282
USER: genes 27 Torsion [CA]-CB--CG1-[CD1] |==|  0.76762
USER: genes 28 Torsion [C]-CA--CB-[CG] |==|  0.28286
USER: genes 29 Torsion [CA]-CB--CG-[CD1] |==|  0.54165
ROOT
ATOM      1  C   THR D 648     -63.578   9.570  -5.089  1.00 57.47 LIG 0.24  C 
ATOM      2 O    THR D 648     -62.597   9.795  -5.800  1.00 58.33 LIG-0.27  OA
ATOM      3  N   PRO D 649     -64.486   8.623  -5.382  1.00 55.77 LIG-0.34  N 
ATOM      4  CA  PRO D 649     -64.315   7.692  -6.507  1.00 54.43 LIG 0.18  C 
ATOM      5  CB  PRO D 649     -65.306   6.572  -6.170  1.00 56.30 LIG 0.04  C 
ATOM      6  CG  PRO D 649     -66.373   7.245  -5.370  1.00 52.90 LIG 0.02  C 
ATOM      7  CD  PRO D 649     -65.637   8.255  -4.533  1.00 52.65 LIG 0.13  C 
ENDROOT
BRANCH 4 8
ATOM      8  C   PRO D 649     -64.627   8.248  -7.901  1.00 62.44 LIG 0.24  C 
ATOM      9  N   ARG D 650     -64.002   7.658  -8.920  1.00 65.13 LIG-0.35  N 
ATOM     10 H    ARG D 650     -63.315   7.151  -8.823  1.00 65.13 LIG 0.16  HD
ATOM     11 O    PRO D 649     -65.415   9.184  -8.037  1.00 64.48 LIG-0.27  OA
BRANCH 9 12
ATOM     12  CA  ARG D 650     -64.430   7.818 -10.312  1.00 68.90 LIG 0.18  C 
BRANCH 12 13
ATOM     13  C   ARG D 650     -65.932   7.545 -10.406  1.00 70.53 LIG 0.24  C 
ATOM     14  N   ARG D 651     -66.731   8.592 -10.592  1.00 72.55 LIG-0.35  N 
ATOM     15 H    ARG D 651     -66.460   9.398 -10.723  1.00 72.55 LIG 0.16  HD
ATOM     16 O    ARG D 650     -66.366   6.396 -10.298  1.00 68.24 LIG-0.27  OA
BRANCH 14 17
ATOM     17  CA  ARG D 651     -68.181   8.420 -10.580  1.00 72.50 LIG 0.16  C 
BRANCH 17 18
ATOM     18  C   ARG D 651     -68.644   7.760  -9.280  1.00 69.52 LIG 0.22  C 
ATOM     19 O    ARG D 651     -68.827   8.426  -8.255  1.00 68.10 LIG-0.29  OA
ENDBRANCH 17 18
BRANCH 17 20
ATOM     20  CB  ARG D 651     -68.663   7.588 -11.788  1.00 76.74 LIG 0.04  C 
BRANCH 20 21
ATOM     21  CG  ARG D 651     -69.866   6.595 -11.606  1.00 75.60 LIG 0.02  C 
BRANCH 21 22
ATOM     22  CD  ARG D 651     -71.286   7.218 -11.515  1.00 74.66 LIG 0.14  C 
BRANCH 22 23
ATOM     23  NE  ARG D 651     -72.370   6.378 -12.040  1.00 75.25 LIG-0.23  N 
ATOM     24 HE   ARG D 651     -72.533   5.644 -11.623  1.00 75.25 LIG 0.18  HD
ATOM     25  CZ  ARG D 651     -73.122   6.654 -13.103  1.00 78.75 LIG 0.67  C 
ATOM     26  NH2 ARG D 651     -74.075   5.807 -13.479  1.00 79.25 LIG-0.23  N 
ATOM     27  NH1 ARG D 651     -72.942   7.773 -13.780  1.00 78.43 LIG-0.23  N 
ATOM     28 2HH2 ARG D 651     -74.561   5.983 -14.165  1.00 79.25 LIG 0.17  HD
ATOM     29 1HH2 ARG D 651     -74.204   5.082 -13.035  1.00 79.25 LIG 0.17  HD
ATOM     30 2HH1 ARG D 651     -73.431   7.945 -14.465  1.00 78.43 LIG 0.17  HD
ATOM     31 1HH1 ARG D 651     -72.335   8.331 -13.533  1.00 78.43 LIG 0.17  HD
ENDBRANCH 22 23
ENDBRANCH 21 22
ENDBRANCH 20 21
ENDBRANCH 17 20
ENDBRANCH 14 17
ENDBRANCH 12 13
BRANCH 12 32
ATOM     32  CB  ARG D 650     -63.654   6.874 -11.243  1.00 66.96 LIG 0.04  C 
BRANCH 32 33
ATOM     33  CG  ARG D 650     -63.548   7.336 -12.694  1.00 73.73 LIG 0.02  C 
BRANCH 33 34
ATOM     34  CD  ARG D 650     -64.387   6.451 -13.627  1.00 75.05 LIG 0.14  C 
BRANCH 34 35
ATOM     35  NE  ARG D 650     -65.694   6.103 -13.097  1.00 81.10 LIG-0.23  N 
ATOM     36 HE   ARG D 650     -66.129   6.707 -12.666  1.00 81.10 LIG 0.18  HD
ATOM     37  CZ  ARG D 650     -66.260   4.906 -13.237  1.00 84.47 LIG 0.67  C 
ATOM     38  NH1 ARG D 650     -65.621   3.940 -13.885  1.00 76.84 LIG-0.23  N 
ATOM     39  NH2 ARG D 650     -67.468   4.665 -12.725  1.00 84.76 LIG-0.23  N 
ATOM     40 1HH1 ARG D 650     -64.841   4.087 -14.216  1.00 76.84 LIG 0.17  HD
ATOM     41 2HH1 ARG D 650     -65.988   3.167 -13.975  1.00 76.84 LIG 0.17  HD
ATOM     42 1HH2 ARG D 650     -67.887   5.285 -12.301  1.00 84.76 LIG 0.17  HD
ATOM     43 2HH2 ARG D 650     -67.828   3.890 -12.819  1.00 84.76 LIG 0.17  HD
ENDBRANCH 34 35
ENDBRANCH 33 34
ENDBRANCH 32 33
ENDBRANCH 12 32
ENDBRANCH 9 12
ENDBRANCH 4 8
BRANCH 1 44
ATOM     44  CA  THR D 648     -63.790  10.349  -3.790  1.00 55.33 LIG 0.20  C 
BRANCH 44 45
ATOM     45  CB  THR D 648     -64.098  11.847  -4.084  1.00 57.91 LIG 0.15  C 
ATOM     46  CG2 THR D 648     -65.564  12.039  -4.496  1.00 54.65 LIG 0.04  C 
BRANCH 45 47
ATOM     47 OG1  THR D 648     -63.827  12.634  -2.913  1.00 51.58 LIG-0.39  OA
ATOM     48 HG1  THR D 648     -63.020  12.544  -2.695  1.00 51.58 LIG 0.21  HD
ENDBRANCH 45 47
ENDBRANCH 44 45
BRANCH 44 49
ATOM     49  N   THR D 648     -62.609  10.201  -2.946  1.00 49.85 LIG-0.34  N 
ATOM     50 H    THR D 648     -61.939  10.685  -3.183  1.00 49.85 LIG 0.16  HD
ATOM     51  C   LEU D 647     -62.601   9.377  -1.904  1.00 48.49 LIG 0.24  C 
ATOM     52 O    LEU D 647     -63.549   8.641  -1.623  1.00 50.57 LIG-0.27  OA
BRANCH 51 53
ATOM     53  CA  LEU D 647     -61.350   9.396  -1.041  1.00 48.52 LIG 0.18  C 
BRANCH 53 54
ATOM     54  CB  LEU D 647     -61.525  10.436   0.066  1.00 42.08 LIG 0.04  C 
BRANCH 54 55
ATOM     55  CG  LEU D 647     -60.378  10.639   1.056  1.00 43.63 LIG-0.02  C 
ATOM     56  CD1 LEU D 647     -60.887  11.365   2.308  1.00 34.09 LIG 0.01  C 
ATOM     57  CD2 LEU D 647     -59.758   9.311   1.414  1.00 37.87 LIG 0.01  C 
ENDBRANCH 54 55
ENDBRANCH 53 54
BRANCH 53 58
ATOM     58  N   LEU D 647     -60.143   9.672  -1.817  1.00 49.21 LIG-0.35  N 
ATOM     59  C   LEU D 646     -59.190   8.756  -1.986  1.00 51.75 LIG 0.24  C 
ATOM     60 O    LEU D 646     -59.291   7.595  -1.587  1.00 46.22 LIG-0.27  OA
ATOM     61 H    LEU D 647     -60.108  10.466  -2.147  1.00 49.21 LIG 0.16  HD
BRANCH 59 62
ATOM     62  CA  LEU D 646     -57.941   9.211  -2.730  1.00 53.11 LIG 0.18  C 
BRANCH 62 63
ATOM     63  N   LEU D 646     -58.002   8.847  -4.141  1.00 56.32 LIG-0.35  N 
ATOM     64  C   ILE D 645     -57.929   7.577  -4.529  1.00 63.27 LIG 0.26  C 
ATOM     65 O    ILE D 645     -57.778   6.640  -3.735  1.00 63.46 LIG-0.27  OA
ATOM     66 H    LEU D 646     -58.087   9.512  -4.678  1.00 56.32 LIG 0.16  HD
BRANCH 64 67
ATOM     67  CA  ILE D 645     -58.068   7.313  -6.030  1.00 63.54 LIG 0.40  C 
ATOM     68  N   ILE D 645     -56.909   6.614  -6.582  1.00 63.63 LIG 0.61  N 
BRANCH 67 69
ATOM     69  CB  ILE D 645     -59.376   6.527  -6.240  1.00 61.73 LIG 0.03  C 
ATOM     70  CG2 ILE D 645     -60.448   7.032  -5.268  1.00 57.36 LIG 0.01  C 
BRANCH 69 71
ATOM     71  CG1 ILE D 645     -59.850   6.611  -7.696  1.00 65.03 LIG 0.00  C 
ATOM     72  CD1 ILE D 645     -60.648   7.871  -8.001  1.00 60.49 LIG 0.01  C 
ENDBRANCH 69 71
ENDBRANCH 67 69
ENDBRANCH 64 67
ENDBRANCH 62 63
BRANCH 62 73
ATOM     73  CB  LEU D 646     -57.753  10.717  -2.577  1.00 52.76 LIG 0.04  C 
BRANCH 73 74
ATOM     74  CG  LEU D 646     -56.699  11.130  -1.553  1.00 58.95 LIG-0.02  C 
ATOM     75  CD1 LEU D 646     -56.844  12.614  -1.206  1.00 55.02 LIG 0.01  C 
ATOM     76  CD2 LEU D 646     -56.813  10.255  -0.308  1.00 54.54 LIG 0.01  C 
ENDBRANCH 73 74
ENDBRANCH 62 73
ENDBRANCH 59 62
ENDBRANCH 53 58
ENDBRANCH 51 53
ENDBRANCH 44 49
ENDBRANCH 1 44
TORSDOF 28
ENDMDL
MODEL 7
USER: ADFR SOLUTION from run 154
USER: SCORE 23.019399 LL:  -5.593 LR: -18.751 RR:   0.000 FEB: -10.399
USER: RMSD 3.204619
USER: SEED 153
USER: STATUS no improvement in best in 7 clusters for 5 generations
USER: GENES 30
USER: genes 0 Translation |==|  0.49453 0.50796 0.58116
USER: genes 1 Rotation |==|  0.50895 0.44625 0.46284 0.99563
USER: genes 2 Torsion [N]-CA--C-[N] |==|  0.36022
USER: genes 3 Torsion [C]-N--CA-[CB] |==|  0.57222
USER: genes 4 Torsion [N]-CA--C-[N] |==|  0.83725
USER: genes 5 Torsion [C]-N--CA-[CB] |==|  0.33317
USER: genes 6 Torsion [N]-CA--C-[O] |==|  0.00632
USER: genes 7 Torsion [N]-CA--CB-[CG] |==|  0.61165
USER: genes 8 Torsion [CA]-CB--CG-[CD] |==|  0.82378
USER: genes 9 Torsion [CB]-CG--CD-[NE] |==|  0.84413
USER: genes 10 Torsion [CG]-CD--NE-[HE] |==|  0.15080
USER: genes 11 Torsion [N]-CA--CB-[CG] |==|  0.97410
USER: genes 12 Torsion [CA]-CB--CG-[CD] |==|  0.68962
USER: genes 13 Torsion [CB]-CG--CD-[NE] |==|  0.48535
USER: genes 14 Torsion [CG]-CD--NE-[CZ] |==|  0.43931
USER: genes 15 Torsion [N]-C--CA-[N] |==|  0.41962
USER: genes 16 Torsion [C]-CA--CB-[CG2] |==|  0.24727
USER: genes 17 Torsion [CA]-CB--OG1-[HG1] |==|  0.18560
USER: genes 18 Torsion [C]-CA--N-[C] |==|  0.72254
USER: genes 19 Torsion [N]-C--CA-[N] |==|  0.91155
USER: genes 20 Torsion [C]-CA--CB-[CG] |==|  0.45681
USER: genes 21 Torsion [CA]-CB--CG-[CD1] |==|  0.61032
USER: genes 22 Torsion [C]-CA--N-[C] |==|  0.72311
USER: genes 23 Torsion [N]-C--CA-[N] |==|  0.86217
USER: genes 24 Torsion [C]-CA--N-[C] |==|  0.83829
USER: genes 25 Torsion [N]-C--CA-[N] |==|  0.14443
USER: genes 26 Torsion [C]-CA--CB-[CG2] |==|  0.40675
USER: genes 27 Torsion [CA]-CB--CG1-[CD1] |==|  0.55047
USER: genes 28 Torsion [C]-CA--CB-[CG] |==|  0.75389
USER: genes 29 Torsion [CA]-CB--CG-[CD1] |==|  0.27561
ROOT
ATOM      1  C   THR D 648     -63.130   8.970  -4.909  1.00 57.47 LIG 0.24  C 
ATOM      2 O    THR D 648     -61.961   8.960  -5.299  1.00 58.33 LIG-0.27  OA
ATOM      3  N   PRO D 649     -64.113   8.309  -5.544  1.00 55.77 LIG-0.34  N 
ATOM      4  CA  PRO D 649     -63.852   7.416  -6.682  1.00 54.43 LIG 0.18  C 
ATOM      5  CB  PRO D 649     -65.136   6.582  -6.757  1.00 56.30 LIG 0.04  C 
ATOM      6  CG  PRO D 649     -66.196   7.477  -6.201  1.00 52.90 LIG 0.02  C 
ATOM      7  CD  PRO D 649     -65.514   8.221  -5.085  1.00 52.65 LIG 0.13  C 
ENDROOT
BRANCH 4 8
ATOM      8  C   PRO D 649     -63.603   8.095  -8.034  1.00 62.44 LIG 0.24  C 
ATOM      9  N   ARG D 650     -62.515   7.701  -8.695  1.00 65.13 LIG-0.35  N 
ATOM     10 H    ARG D 650     -61.871   7.264  -8.328  1.00 65.13 LIG 0.16  HD
ATOM     11 O    PRO D 649     -64.384   8.947  -8.457  1.00 64.48 LIG-0.27  OA
BRANCH 9 12
ATOM     12  CA  ARG D 650     -62.310   7.976 -10.119  1.00 68.90 LIG 0.18  C 
BRANCH 12 13
ATOM     13  C   ARG D 650     -63.667   7.987 -10.824  1.00 70.53 LIG 0.24  C 
ATOM     14  N   ARG D 651     -64.402   6.881 -10.748  1.00 72.55 LIG-0.35  N 
ATOM     15 H    ARG D 651     -64.197   6.187 -10.283  1.00 72.55 LIG 0.16  HD
ATOM     16 O    ARG D 650     -64.041   8.985 -11.444  1.00 68.24 LIG-0.27  OA
BRANCH 14 17
ATOM     17  CA  ARG D 651     -65.658   6.782 -11.488  1.00 72.50 LIG 0.16  C 
BRANCH 17 18
ATOM     18  C   ARG D 651     -66.843   6.622 -10.535  1.00 69.52 LIG 0.22  C 
ATOM     19 O    ARG D 651     -66.683   6.633  -9.309  1.00 68.10 LIG-0.29  OA
ENDBRANCH 17 18
BRANCH 17 20
ATOM     20  CB  ARG D 651     -65.634   5.609 -12.491  1.00 76.74 LIG 0.04  C 
BRANCH 20 21
ATOM     21  CG  ARG D 651     -66.271   5.801 -13.913  1.00 75.60 LIG 0.02  C 
BRANCH 21 22
ATOM     22  CD  ARG D 651     -67.799   6.074 -13.968  1.00 74.66 LIG 0.14  C 
BRANCH 22 23
ATOM     23  NE  ARG D 651     -68.637   5.063 -13.311  1.00 75.25 LIG-0.23  N 
ATOM     24 HE   ARG D 651     -68.457   4.879 -12.491  1.00 75.25 LIG 0.18  HD
ATOM     25  CZ  ARG D 651     -69.651   4.408 -13.873  1.00 78.75 LIG 0.67  C 
ATOM     26  NH2 ARG D 651     -70.333   3.512 -13.168  1.00 79.25 LIG-0.23  N 
ATOM     27  NH1 ARG D 651     -69.998   4.655 -15.123  1.00 78.43 LIG-0.23  N 
ATOM     28 2HH2 ARG D 651     -70.988   3.088 -13.530  1.00 79.25 LIG 0.17  HD
ATOM     29 1HH2 ARG D 651     -70.119   3.356 -12.350  1.00 79.25 LIG 0.17  HD
ATOM     30 2HH1 ARG D 651     -70.654   4.229 -15.480  1.00 78.43 LIG 0.17  HD
ATOM     31 1HH1 ARG D 651     -69.568   5.244 -15.580  1.00 78.43 LIG 0.17  HD
ENDBRANCH 22 23
ENDBRANCH 21 22
ENDBRANCH 20 21
ENDBRANCH 17 20
ENDBRANCH 14 17
ENDBRANCH 12 13
BRANCH 12 32
ATOM     32  CB  ARG D 650     -61.382   6.931 -10.758  1.00 66.96 LIG 0.04  C 
BRANCH 32 33
ATOM     33  CG  ARG D 650     -60.699   5.983  -9.774  1.00 73.73 LIG 0.02  C 
BRANCH 33 34
ATOM     34  CD  ARG D 650     -59.186   6.234  -9.712  1.00 75.05 LIG 0.14  C 
BRANCH 34 35
ATOM     35  NE  ARG D 650     -58.495   5.446  -8.705  1.00 81.10 LIG-0.23  N 
ATOM     36 HE   ARG D 650     -58.956   5.135  -8.049  1.00 81.10 LIG 0.18  HD
ATOM     37  CZ  ARG D 650     -57.192   5.175  -8.737  1.00 84.47 LIG 0.67  C 
ATOM     38  NH1 ARG D 650     -56.439   5.641  -9.725  1.00 76.84 LIG-0.23  N 
ATOM     39  NH2 ARG D 650     -56.631   4.438  -7.777  1.00 84.76 LIG-0.23  N 
ATOM     40 1HH1 ARG D 650     -56.793   6.119 -10.346  1.00 76.84 LIG 0.17  HD
ATOM     41 2HH1 ARG D 650     -55.597   5.465  -9.744  1.00 76.84 LIG 0.17  HD
ATOM     42 1HH2 ARG D 650     -57.112   4.134  -7.131  1.00 84.76 LIG 0.17  HD
ATOM     43 2HH2 ARG D 650     -55.789   4.267  -7.803  1.00 84.76 LIG 0.17  HD
ENDBRANCH 34 35
ENDBRANCH 33 34
ENDBRANCH 32 33
ENDBRANCH 12 32
ENDBRANCH 9 12
ENDBRANCH 4 8
BRANCH 1 44
ATOM     44  CA  THR D 648     -63.516   9.721  -3.633  1.00 55.33 LIG 0.20  C 
BRANCH 44 45
ATOM     45  CB  THR D 648     -64.050  11.145  -3.966  1.00 57.91 LIG 0.15  C 
ATOM     46  CG2 THR D 648     -65.566  11.126  -4.205  1.00 54.65 LIG 0.04  C 
BRANCH 45 47
ATOM     47 OG1  THR D 648     -63.752  12.038  -2.881  1.00 51.58 LIG-0.39  OA
ATOM     48 HG1  THR D 648     -62.920  12.145  -2.825  1.00 51.58 LIG 0.21  HD
ENDBRANCH 45 47
ENDBRANCH 44 45
BRANCH 44 49
ATOM     49  N   THR D 648     -62.361   9.776  -2.743  1.00 49.85 LIG-0.34  N 
ATOM     50 H    THR D 648     -61.788  10.386  -2.941  1.00 49.85 LIG 0.16  HD
ATOM     51  C   LEU D 647     -62.235   8.939  -1.720  1.00 48.49 LIG 0.24  C 
ATOM     52 O    LEU D 647     -63.034   8.028  -1.495  1.00 50.57 LIG-0.27  OA
BRANCH 51 53
ATOM     53  CA  LEU D 647     -61.044   9.171  -0.805  1.00 48.52 LIG 0.18  C 
BRANCH 53 54
ATOM     54  CB  LEU D 647     -61.463  10.107   0.329  1.00 42.08 LIG 0.04  C 
BRANCH 54 55
ATOM     55  CG  LEU D 647     -60.561  10.202   1.561  1.00 43.63 LIG-0.02  C 
ATOM     56  CD1 LEU D 647     -61.415  10.280   2.832  1.00 34.09 LIG 0.01  C 
ATOM     57  CD2 LEU D 647     -59.622   9.022   1.610  1.00 37.87 LIG 0.01  C 
ENDBRANCH 54 55
ENDBRANCH 53 54
BRANCH 53 58
ATOM     58  N   LEU D 647     -59.891   9.716  -1.519  1.00 49.21 LIG-0.35  N 
ATOM     59  C   LEU D 646     -58.875   8.946  -1.907  1.00 51.75 LIG 0.24  C 
ATOM     60 O    LEU D 646     -58.870   7.720  -1.780  1.00 46.22 LIG-0.27  OA
ATOM     61 H    LEU D 647     -59.931  10.563  -1.661  1.00 49.21 LIG 0.16  HD
BRANCH 59 62
ATOM     62  CA  LEU D 646     -57.694   9.660  -2.550  1.00 53.11 LIG 0.18  C 
BRANCH 62 63
ATOM     63  N   LEU D 646     -58.132  10.569  -3.602  1.00 56.32 LIG-0.35  N 
ATOM     64  C   ILE D 645     -58.831  10.132  -4.645  1.00 63.27 LIG 0.26  C 
ATOM     65 O    ILE D 645     -59.124   8.940  -4.803  1.00 63.46 LIG-0.27  OA
ATOM     66 H    LEU D 646     -57.902  11.389  -3.485  1.00 56.32 LIG 0.16  HD
BRANCH 64 67
ATOM     67  CA  ILE D 645     -59.289  11.189  -5.652  1.00 63.54 LIG 0.40  C 
ATOM     68  N   ILE D 645     -58.188  12.035  -6.110  1.00 63.63 LIG 0.61  N 
BRANCH 67 69
ATOM     69  CB  ILE D 645     -59.978  10.450  -6.814  1.00 61.73 LIG 0.03  C 
ATOM     70  CG2 ILE D 645     -61.119  11.307  -7.373  1.00 57.36 LIG 0.01  C 
BRANCH 69 71
ATOM     71  CG1 ILE D 645     -58.972  10.067  -7.906  1.00 65.03 LIG 0.00  C 
ATOM     72  CD1 ILE D 645     -59.625   9.742  -9.243  1.00 60.49 LIG 0.01  C 
ENDBRANCH 69 71
ENDBRANCH 67 69
ENDBRANCH 64 67
ENDBRANCH 62 63
BRANCH 62 73
ATOM     73  CB  LEU D 646     -56.894  10.415  -1.493  1.00 52.76 LIG 0.04  C 
BRANCH 73 74
ATOM     74  CG  LEU D 646     -57.367  11.842  -1.229  1.00 58.95 LIG-0.02  C 
ATOM     75  CD1 LEU D 646     -58.244  11.890   0.025  1.00 55.02 LIG 0.01  C 
ATOM     76  CD2 LEU D 646     -56.165  12.772  -1.100  1.00 54.54 LIG 0.01  C 
ENDBRANCH 73 74
ENDBRANCH 62 73
ENDBRANCH 59 62
ENDBRANCH 53 58
ENDBRANCH 51 53
ENDBRANCH 44 49
ENDBRANCH 1 44
TORSDOF 28
ENDMDL
MODEL 8
USER: ADFR SOLUTION from run 42
USER: SCORE 22.382955 LL:  -4.788 LR: -18.710 RR:   0.000 FEB: -10.358
USER: RMSD 5.252279
USER: SEED 41
USER: STATUS no improvement in best in 7 clusters for 5 generations
USER: GENES 30
USER: genes 0 Translation |==|  0.46245 0.52965 0.59688
USER: genes 1 Rotation |==|  0.44762 0.46712 0.39756 0.98547
USER: genes 2 Torsion [N]-CA--C-[N] |==|  0.46249
USER: genes 3 Torsion [C]-N--CA-[CB] |==|  0.88803
USER: genes 4 Torsion [N]-CA--C-[N] |==|  0.30556
USER: genes 5 Torsion [C]-N--CA-[CB] |==|  0.41676
USER: genes 6 Torsion [N]-CA--C-[O] |==|  0.17196
USER: genes 7 Torsion [N]-CA--CB-[CG] |==|  0.74236
USER: genes 8 Torsion [CA]-CB--CG-[CD] |==|  0.80991
USER: genes 9 Torsion [CB]-CG--CD-[NE] |==|  0.66655
USER: genes 10 Torsion [CG]-CD--NE-[HE] |==|  0.29038
USER: genes 11 Torsion [N]-CA--CB-[CG] |==|  0.70756
USER: genes 12 Torsion [CA]-CB--CG-[CD] |==|  0.76786
USER: genes 13 Torsion [CB]-CG--CD-[NE] |==|  0.30118
USER: genes 14 Torsion [CG]-CD--NE-[CZ] |==|  0.66445
USER: genes 15 Torsion [N]-C--CA-[N] |==|  0.41328
USER: genes 16 Torsion [C]-CA--CB-[CG2] |==|  0.19871
USER: genes 17 Torsion [CA]-CB--OG1-[HG1] |==|  0.18162
USER: genes 18 Torsion [C]-CA--N-[C] |==|  0.76750
USER: genes 19 Torsion [N]-C--CA-[N] |==|  0.91411
USER: genes 20 Torsion [C]-CA--CB-[CG] |==|  0.52867
USER: genes 21 Torsion [CA]-CB--CG-[CD1] |==|  0.49156
USER: genes 22 Torsion [C]-CA--N-[C] |==|  0.68921
USER: genes 23 Torsion [N]-C--CA-[N] |==|  0.87477
USER: genes 24 Torsion [C]-CA--N-[C] |==|  0.84260
USER: genes 25 Torsion [N]-C--CA-[N] |==|  0.77548
USER: genes 26 Torsion [C]-CA--CB-[CG2] |==|  0.20312
USER: genes 27 Torsion [CA]-CB--CG1-[CD1] |==|  0.38545
USER: genes 28 Torsion [C]-CA--CB-[CG] |==|  0.72398
USER: genes 29 Torsion [CA]-CB--CG-[CD1] |==|  0.29024
ROOT
ATOM      1  C   THR D 648     -63.924   9.312  -4.484  1.00 57.47 LIG 0.24  C 
ATOM      2 O    THR D 648     -62.862   8.887  -4.943  1.00 58.33 LIG-0.27  OA
ATOM      3  N   PRO D 649     -65.123   8.859  -4.889  1.00 55.77 LIG-0.34  N 
ATOM      4  CA  PRO D 649     -65.264   7.729  -5.819  1.00 54.43 LIG 0.18  C 
ATOM      5  CB  PRO D 649     -66.724   7.309  -5.620  1.00 56.30 LIG 0.04  C 
ATOM      6  CG  PRO D 649     -67.420   8.563  -5.201  1.00 52.90 LIG 0.02  C 
ATOM      7  CD  PRO D 649     -66.424   9.273  -4.325  1.00 52.65 LIG 0.13  C 
ENDROOT
BRANCH 4 8
ATOM      8  C   PRO D 649     -65.017   8.035  -7.301  1.00 62.44 LIG 0.24  C 
ATOM      9  N   ARG D 650     -64.868   6.979  -8.100  1.00 65.13 LIG-0.35  N 
ATOM     10 H    ARG D 650     -64.704   6.186  -7.810  1.00 65.13 LIG 0.16  HD
ATOM     11 O    PRO D 649     -64.968   9.200  -7.697  1.00 64.48 LIG-0.27  OA
BRANCH 9 12
ATOM     12  CA  ARG D 650     -64.972   7.068  -9.559  1.00 68.90 LIG 0.18  C 
BRANCH 12 13
ATOM     13  C   ARG D 650     -63.639   7.565 -10.122  1.00 70.53 LIG 0.24  C 
ATOM     14  N   ARG D 651     -62.905   6.696 -10.809  1.00 72.55 LIG-0.35  N 
ATOM     15 H    ARG D 651     -63.153   5.897 -11.011  1.00 72.55 LIG 0.16  HD
ATOM     16 O    ARG D 650     -63.273   8.726  -9.925  1.00 68.24 LIG-0.27  OA
BRANCH 14 17
ATOM     17  CA  ARG D 651     -61.575   7.069 -11.282  1.00 72.50 LIG 0.16  C 
BRANCH 17 18
ATOM     18  C   ARG D 651     -61.651   7.754 -12.648  1.00 69.52 LIG 0.22  C 
ATOM     19 O    ARG D 651     -62.262   8.818 -12.795  1.00 68.10 LIG-0.29  OA
ENDBRANCH 17 18
BRANCH 17 20
ATOM     20  CB  ARG D 651     -60.638   5.845 -11.364  1.00 76.74 LIG 0.04  C 
BRANCH 20 21
ATOM     21  CG  ARG D 651     -59.726   5.492 -10.135  1.00 75.60 LIG 0.02  C 
BRANCH 21 22
ATOM     22  CD  ARG D 651     -58.572   6.479  -9.808  1.00 74.66 LIG 0.14  C 
BRANCH 22 23
ATOM     23  NE  ARG D 651     -57.224   5.900  -9.856  1.00 75.25 LIG-0.23  N 
ATOM     24 HE   ARG D 651     -56.738   6.094 -10.539  1.00 75.25 LIG 0.18  HD
ATOM     25  CZ  ARG D 651     -56.686   5.102  -8.935  1.00 78.75 LIG 0.67  C 
ATOM     26  NH2 ARG D 651     -55.451   4.641  -9.098  1.00 79.25 LIG-0.23  N 
ATOM     27  NH1 ARG D 651     -57.365   4.779  -7.850  1.00 78.43 LIG-0.23  N 
ATOM     28 2HH2 ARG D 651     -55.102   4.125  -8.505  1.00 79.25 LIG 0.17  HD
ATOM     29 1HH2 ARG D 651     -55.000   4.858  -9.797  1.00 79.25 LIG 0.17  HD
ATOM     30 2HH1 ARG D 651     -57.012   4.264  -7.259  1.00 78.43 LIG 0.17  HD
ATOM     31 1HH1 ARG D 651     -58.160   5.086  -7.734  1.00 78.43 LIG 0.17  HD
ENDBRANCH 22 23
ENDBRANCH 21 22
ENDBRANCH 20 21
ENDBRANCH 17 20
ENDBRANCH 14 17
ENDBRANCH 12 13
BRANCH 12 32
ATOM     32  CB  ARG D 650     -66.115   8.004  -9.978  1.00 66.96 LIG 0.04  C 
BRANCH 32 33
ATOM     33  CG  ARG D 650     -67.364   7.305 -10.508  1.00 73.73 LIG 0.02  C 
BRANCH 33 34
ATOM     34  CD  ARG D 650     -67.225   6.961 -11.998  1.00 75.05 LIG 0.14  C 
BRANCH 34 35
ATOM     35  NE  ARG D 650     -67.059   5.542 -12.266  1.00 81.10 LIG-0.23  N 
ATOM     36 HE   ARG D 650     -67.678   5.006 -12.004  1.00 81.10 LIG 0.18  HD
ATOM     37  CZ  ARG D 650     -66.005   5.021 -12.891  1.00 84.47 LIG 0.67  C 
ATOM     38  NH1 ARG D 650     -65.020   5.808 -13.304  1.00 76.84 LIG-0.23  N 
ATOM     39  NH2 ARG D 650     -65.928   3.706 -13.105  1.00 84.76 LIG-0.23  N 
ATOM     40 1HH1 ARG D 650     -65.062   6.656 -13.168  1.00 76.84 LIG 0.17  HD
ATOM     41 2HH1 ARG D 650     -64.340   5.470 -13.708  1.00 76.84 LIG 0.17  HD
ATOM     42 1HH2 ARG D 650     -66.561   3.189 -12.838  1.00 84.76 LIG 0.17  HD
ATOM     43 2HH2 ARG D 650     -65.245   3.376 -13.509  1.00 84.76 LIG 0.17  HD
ENDBRANCH 34 35
ENDBRANCH 33 34
ENDBRANCH 32 33
ENDBRANCH 12 32
ENDBRANCH 9 12
ENDBRANCH 4 8
BRANCH 1 44
ATOM     44  CA  THR D 648     -63.924  10.371  -3.380  1.00 55.33 LIG 0.20  C 
BRANCH 44 45
ATOM     45  CB  THR D 648     -64.032  11.802  -3.984  1.00 57.91 LIG 0.15  C 
ATOM     46  CG2 THR D 648     -65.437  12.061  -4.545  1.00 54.65 LIG 0.04  C 
BRANCH 45 47
ATOM     47 OG1  THR D 648     -63.740  12.777  -2.969  1.00 51.58 LIG-0.39  OA
ATOM     48 HG1  THR D 648     -62.938  12.702  -2.730  1.00 51.58 LIG 0.21  HD
ENDBRANCH 45 47
ENDBRANCH 44 45
BRANCH 44 49
ATOM     49  N   THR D 648     -62.718  10.219  -2.573  1.00 49.85 LIG-0.34  N 
ATOM     50 H    THR D 648     -62.071  10.739  -2.798  1.00 49.85 LIG 0.16  HD
ATOM     51  C   LEU D 647     -62.656   9.340  -1.580  1.00 48.49 LIG 0.24  C 
ATOM     52 O    LEU D 647     -63.571   8.557  -1.318  1.00 50.57 LIG-0.27  OA
BRANCH 51 53
ATOM     53  CA  LEU D 647     -61.385   9.357  -0.746  1.00 48.52 LIG 0.18  C 
BRANCH 53 54
ATOM     54  CB  LEU D 647     -61.584  10.293   0.447  1.00 42.08 LIG 0.04  C 
BRANCH 54 55
ATOM     55  CG  LEU D 647     -60.364  10.656   1.294  1.00 43.63 LIG-0.02  C 
ATOM     56  CD1 LEU D 647     -60.762  11.657   2.386  1.00 34.09 LIG 0.01  C 
ATOM     57  CD2 LEU D 647     -59.757   9.412   1.893  1.00 37.87 LIG 0.01  C 
ENDBRANCH 54 55
ENDBRANCH 53 54
BRANCH 53 58
ATOM     58  N   LEU D 647     -60.214   9.760  -1.523  1.00 49.21 LIG-0.35  N 
ATOM     59  C   LEU D 646     -59.230   8.908  -1.806  1.00 51.75 LIG 0.24  C 
ATOM     60 O    LEU D 646     -59.271   7.710  -1.521  1.00 46.22 LIG-0.27  OA
ATOM     61 H    LEU D 647     -60.223  10.583  -1.774  1.00 49.21 LIG 0.16  HD
BRANCH 59 62
ATOM     62  CA  LEU D 646     -58.025   9.488  -2.535  1.00 53.11 LIG 0.18  C 
BRANCH 62 63
ATOM     63  N   LEU D 646     -58.435  10.355  -3.633  1.00 56.32 LIG-0.35  N 
ATOM     64  C   ILE D 645     -59.227   9.911  -4.604  1.00 63.27 LIG 0.26  C 
ATOM     65 O    ILE D 645     -59.636   8.744  -4.655  1.00 63.46 LIG-0.27  OA
ATOM     66 H    LEU D 646     -58.125  11.156  -3.591  1.00 56.32 LIG 0.16  HD
BRANCH 64 67
ATOM     67  CA  ILE D 645     -59.641  10.931  -5.667  1.00 63.54 LIG 0.40  C 
ATOM     68  N   ILE D 645     -60.750  11.776  -5.225  1.00 63.63 LIG 0.61  N 
BRANCH 67 69
ATOM     69  CB  ILE D 645     -58.390  11.754  -6.028  1.00 61.73 LIG 0.03  C 
ATOM     70  CG2 ILE D 645     -57.431  10.903  -6.867  1.00 57.36 LIG 0.01  C 
BRANCH 69 71
ATOM     71  CG1 ILE D 645     -58.766  13.055  -6.746  1.00 65.03 LIG 0.00  C 
ATOM     72  CD1 ILE D 645     -57.949  14.256  -6.290  1.00 60.49 LIG 0.01  C 
ENDBRANCH 69 71
ENDBRANCH 67 69
ENDBRANCH 64 67
ENDBRANCH 62 63
BRANCH 62 73
ATOM     73  CB  LEU D 646     -57.133  10.249  -1.559  1.00 52.76 LIG 0.04  C 
BRANCH 73 74
ATOM     74  CG  LEU D 646     -57.320  11.764  -1.569  1.00 58.95 LIG-0.02  C 
ATOM     75  CD1 LEU D 646     -58.111  12.214  -0.338  1.00 55.02 LIG 0.01  C 
ATOM     76  CD2 LEU D 646     -55.961  12.454  -1.637  1.00 54.54 LIG 0.01  C 
ENDBRANCH 73 74
ENDBRANCH 62 73
ENDBRANCH 59 62
ENDBRANCH 53 58
ENDBRANCH 51 53
ENDBRANCH 44 49
ENDBRANCH 1 44
TORSDOF 28
ENDMDL
MODEL 9
USER: ADFR SOLUTION from run 130
USER: SCORE 22.037084 LL:  -4.904 LR: -18.224 RR:   0.000 FEB:  -9.872
USER: RMSD 3.688303
USER: SEED 129
USER: STATUS no improvement in best in 6 clusters for 5 generations
USER: GENES 30
USER: genes 0 Translation |==|  0.48403 0.53616 0.57569
USER: genes 1 Rotation |==|  0.49656 0.49903 0.50890 0.99991
USER: genes 2 Torsion [N]-CA--C-[N] |==|  0.41018
USER: genes 3 Torsion [C]-N--CA-[CB] |==|  0.49617
USER: genes 4 Torsion [N]-CA--C-[N] |==|  0.46124
USER: genes 5 Torsion [C]-N--CA-[CB] |==|  0.84904
USER: genes 6 Torsion [N]-CA--C-[O] |==|  0.23450
USER: genes 7 Torsion [N]-CA--CB-[CG] |==|  0.80580
USER: genes 8 Torsion [CA]-CB--CG-[CD] |==|  0.82953
USER: genes 9 Torsion [CB]-CG--CD-[NE] |==|  0.61070
USER: genes 10 Torsion [CG]-CD--NE-[HE] |==|  0.36553
USER: genes 11 Torsion [N]-CA--CB-[CG] |==|  0.55284
USER: genes 12 Torsion [CA]-CB--CG-[CD] |==|  0.64675
USER: genes 13 Torsion [CB]-CG--CD-[NE] |==|  0.36678
USER: genes 14 Torsion [CG]-CD--NE-[CZ] |==|  0.48404
USER: genes 15 Torsion [N]-C--CA-[N] |==|  0.36430
USER: genes 16 Torsion [C]-CA--CB-[CG2] |==|  0.22666
USER: genes 17 Torsion [CA]-CB--OG1-[HG1] |==|  0.12133
USER: genes 18 Torsion [C]-CA--N-[C] |==|  0.73801
USER: genes 19 Torsion [N]-C--CA-[N] |==|  0.90608
USER: genes 20 Torsion [C]-CA--CB-[CG] |==|  0.48028
USER: genes 21 Torsion [CA]-CB--CG-[CD1] |==|  0.54531
USER: genes 22 Torsion [C]-CA--N-[C] |==|  0.69688
USER: genes 23 Torsion [N]-C--CA-[N] |==|  0.87455
USER: genes 24 Torsion [C]-CA--N-[C] |==|  0.82400
USER: genes 25 Torsion [N]-C--CA-[N] |==|  0.77676
USER: genes 26 Torsion [C]-CA--CB-[CG2] |==|  0.20406
USER: genes 27 Torsion [CA]-CB--CG1-[CD1] |==|  0.37563
USER: genes 28 Torsion [C]-CA--CB-[CG] |==|  0.73775
USER: genes 29 Torsion [CA]-CB--CG-[CD1] |==|  0.27779
ROOT
ATOM      1  C   THR D 648     -63.390   9.414  -5.056  1.00 57.47 LIG 0.24  C 
ATOM      2 O    THR D 648     -62.344   9.581  -5.687  1.00 58.33 LIG-0.27  OA
ATOM      3  N   PRO D 649     -64.342   8.548  -5.443  1.00 55.77 LIG-0.34  N 
ATOM      4  CA  PRO D 649     -64.157   7.634  -6.580  1.00 54.43 LIG 0.18  C 
ATOM      5  CB  PRO D 649     -65.251   6.585  -6.350  1.00 56.30 LIG 0.04  C 
ATOM      6  CG  PRO D 649     -66.322   7.319  -5.611  1.00 52.90 LIG 0.02  C 
ATOM      7  CD  PRO D 649     -65.577   8.249  -4.692  1.00 52.65 LIG 0.13  C 
ENDROOT
BRANCH 4 8
ATOM      8  C   PRO D 649     -64.321   8.246  -7.977  1.00 62.44 LIG 0.24  C 
ATOM      9  N   ARG D 650     -63.563   7.720  -8.939  1.00 65.13 LIG-0.35  N 
ATOM     10 H    ARG D 650     -62.876   7.226  -8.783  1.00 65.13 LIG 0.16  HD
ATOM     11 O    PRO D 649     -65.116   9.167  -8.165  1.00 64.48 LIG-0.27  OA
BRANCH 9 12
ATOM     12  CA  ARG D 650     -63.829   7.934 -10.363  1.00 68.90 LIG 0.18  C 
BRANCH 12 13
ATOM     13  C   ARG D 650     -65.228   7.407 -10.692  1.00 70.53 LIG 0.24  C 
ATOM     14  N   ARG D 651     -65.755   7.766 -11.859  1.00 72.55 LIG-0.35  N 
ATOM     15 H    ARG D 651     -65.344   8.220 -12.464  1.00 72.55 LIG 0.16  HD
ATOM     16 O    ARG D 650     -65.830   6.691  -9.890  1.00 68.24 LIG-0.27  OA
BRANCH 14 17
ATOM     17  CA  ARG D 651     -67.127   7.392 -12.191  1.00 72.50 LIG 0.16  C 
BRANCH 17 18
ATOM     18  C   ARG D 651     -68.127   8.137 -11.305  1.00 69.52 LIG 0.22  C 
ATOM     19 O    ARG D 651     -68.509   9.278 -11.592  1.00 68.10 LIG-0.29  OA
ENDBRANCH 17 18
BRANCH 17 20
ATOM     20  CB  ARG D 651     -67.348   5.870 -12.061  1.00 76.74 LIG 0.04  C 
BRANCH 20 21
ATOM     21  CG  ARG D 651     -66.668   4.904 -13.096  1.00 75.60 LIG 0.02  C 
BRANCH 21 22
ATOM     22  CD  ARG D 651     -67.073   5.073 -14.586  1.00 74.66 LIG 0.14  C 
BRANCH 22 23
ATOM     23  NE  ARG D 651     -67.238   3.820 -15.333  1.00 75.25 LIG-0.23  N 
ATOM     24 HE   ARG D 651     -67.954   3.735 -15.801  1.00 75.25 LIG 0.18  HD
ATOM     25  CZ  ARG D 651     -66.376   2.805 -15.350  1.00 78.75 LIG 0.67  C 
ATOM     26  NH2 ARG D 651     -66.644   1.720 -16.069  1.00 79.25 LIG-0.23  N 
ATOM     27  NH1 ARG D 651     -65.245   2.875 -14.672  1.00 78.43 LIG-0.23  N 
ATOM     28 2HH2 ARG D 651     -66.089   1.064 -16.081  1.00 79.25 LIG 0.17  HD
ATOM     29 1HH2 ARG D 651     -67.373   1.674 -16.522  1.00 79.25 LIG 0.17  HD
ATOM     30 2HH1 ARG D 651     -64.693   2.216 -14.688  1.00 78.43 LIG 0.17  HD
ATOM     31 1HH1 ARG D 651     -65.061   3.580 -14.216  1.00 78.43 LIG 0.17  HD
ENDBRANCH 22 23
ENDBRANCH 21 22
ENDBRANCH 20 21
ENDBRANCH 17 20
ENDBRANCH 14 17
ENDBRANCH 12 13
BRANCH 12 32
ATOM     32  CB  ARG D 650     -62.775   7.236 -11.235  1.00 66.96 LIG 0.04  C 
BRANCH 32 33
ATOM     33  CG  ARG D 650     -62.678   7.748 -12.671  1.00 73.73 LIG 0.02  C 
BRANCH 33 34
ATOM     34  CD  ARG D 650     -62.790   6.600 -13.684  1.00 75.05 LIG 0.14  C 
BRANCH 34 35
ATOM     35  NE  ARG D 650     -63.726   6.855 -14.767  1.00 81.10 LIG-0.23  N 
ATOM     36 HE   ARG D 650     -64.199   7.572 -14.732  1.00 81.10 LIG 0.18  HD
ATOM     37  CZ  ARG D 650     -63.896   6.045 -15.810  1.00 84.47 LIG 0.67  C 
ATOM     38  NH1 ARG D 650     -63.195   4.922 -15.901  1.00 76.84 LIG-0.23  N 
ATOM     39  NH2 ARG D 650     -64.773   6.351 -16.768  1.00 84.76 LIG-0.23  N 
ATOM     40 1HH1 ARG D 650     -62.630   4.717 -15.287  1.00 76.84 LIG 0.17  HD
ATOM     41 2HH1 ARG D 650     -63.306   4.400 -16.576  1.00 76.84 LIG 0.17  HD
ATOM     42 1HH2 ARG D 650     -65.233   7.077 -16.715  1.00 84.76 LIG 0.17  HD
ATOM     43 2HH2 ARG D 650     -64.877   5.824 -17.439  1.00 84.76 LIG 0.17  HD
ENDBRANCH 34 35
ENDBRANCH 33 34
ENDBRANCH 32 33
ENDBRANCH 12 32
ENDBRANCH 9 12
ENDBRANCH 4 8
BRANCH 1 44
ATOM     44  CA  THR D 648     -63.640  10.176  -3.754  1.00 55.33 LIG 0.20  C 
BRANCH 44 45
ATOM     45  CB  THR D 648     -64.025  11.657  -4.041  1.00 57.91 LIG 0.15  C 
ATOM     46  CG2 THR D 648     -65.513  11.782  -4.398  1.00 54.65 LIG 0.04  C 
BRANCH 45 47
ATOM     47 OG1  THR D 648     -63.746  12.462  -2.884  1.00 51.58 LIG-0.39  OA
ATOM     48 HG1  THR D 648     -62.996  12.249  -2.569  1.00 51.58 LIG 0.21  HD
ENDBRANCH 45 47
ENDBRANCH 44 45
BRANCH 44 49
ATOM     49  N   THR D 648     -62.452  10.085  -2.912  1.00 49.85 LIG-0.34  N 
ATOM     50 H    THR D 648     -61.854  10.682  -3.074  1.00 49.85 LIG 0.16  HD
ATOM     51  C   LEU D 647     -62.334   9.147  -1.980  1.00 48.49 LIG 0.24  C 
ATOM     52 O    LEU D 647     -63.173   8.260  -1.810  1.00 50.57 LIG-0.27  OA
BRANCH 51 53
ATOM     53  CA  LEU D 647     -61.099   9.228  -1.097  1.00 48.52 LIG 0.18  C 
BRANCH 53 54
ATOM     54  CB  LEU D 647     -61.410  10.109   0.113  1.00 42.08 LIG 0.04  C 
BRANCH 54 55
ATOM     55  CG  LEU D 647     -60.367  10.202   1.227  1.00 43.63 LIG-0.02  C 
ATOM     56  CD1 LEU D 647     -61.004  10.778   2.498  1.00 34.09 LIG 0.01  C 
ATOM     57  CD2 LEU D 647     -59.764   8.845   1.491  1.00 37.87 LIG 0.01  C 
ENDBRANCH 54 55
ENDBRANCH 53 54
BRANCH 53 58
ATOM     58  N   LEU D 647     -59.933   9.737  -1.816  1.00 49.21 LIG-0.35  N 
ATOM     59  C   LEU D 646     -58.903   8.953  -2.132  1.00 51.75 LIG 0.24  C 
ATOM     60 O    LEU D 646     -58.893   7.738  -1.930  1.00 46.22 LIG-0.27  OA
ATOM     61 H    LEU D 647     -59.975  10.574  -2.011  1.00 49.21 LIG 0.16  HD
BRANCH 59 62
ATOM     62  CA  LEU D 646     -57.712   9.636  -2.790  1.00 53.11 LIG 0.18  C 
BRANCH 62 63
ATOM     63  N   LEU D 646     -58.139  10.556  -3.837  1.00 56.32 LIG-0.35  N 
ATOM     64  C   ILE D 645     -58.774  10.120  -4.921  1.00 63.27 LIG 0.26  C 
ATOM     65 O    ILE D 645     -59.013   8.923  -5.123  1.00 63.46 LIG-0.27  OA
ATOM     66 H    LEU D 646     -57.947  11.381  -3.689  1.00 56.32 LIG 0.16  HD
BRANCH 64 67
ATOM     67  CA  ILE D 645     -59.230  11.186  -5.921  1.00 63.54 LIG 0.40  C 
ATOM     68  N   ILE D 645     -60.473  11.838  -5.511  1.00 63.63 LIG 0.61  N 
BRANCH 67 69
ATOM     69  CB  ILE D 645     -58.073  12.190  -6.082  1.00 61.73 LIG 0.03  C 
ATOM     70  CG2 ILE D 645     -56.947  11.558  -6.908  1.00 57.36 LIG 0.01  C 
BRANCH 69 71
ATOM     71  CG1 ILE D 645     -58.558  13.505  -6.703  1.00 65.03 LIG 0.00  C 
ATOM     72  CD1 ILE D 645     -58.010  14.743  -6.004  1.00 60.49 LIG 0.01  C 
ENDBRANCH 69 71
ENDBRANCH 67 69
ENDBRANCH 64 67
ENDBRANCH 62 63
BRANCH 62 73
ATOM     73  CB  LEU D 646     -56.880  10.371  -1.743  1.00 52.76 LIG 0.04  C 
BRANCH 73 74
ATOM     74  CG  LEU D 646     -57.223  11.849  -1.574  1.00 58.95 LIG-0.02  C 
ATOM     75  CD1 LEU D 646     -58.118  12.053  -0.350  1.00 55.02 LIG 0.01  C 
ATOM     76  CD2 LEU D 646     -55.941  12.670  -1.467  1.00 54.54 LIG 0.01  C 
ENDBRANCH 73 74
ENDBRANCH 62 73
ENDBRANCH 59 62
ENDBRANCH 53 58
ENDBRANCH 51 53
ENDBRANCH 44 49
ENDBRANCH 1 44
TORSDOF 28
ENDMDL
MODEL 10
USER: ADFR SOLUTION from run 111
USER: SCORE 22.304186 LL:  -5.634 LR: -17.984 RR:   0.000 FEB:  -9.632
USER: RMSD 5.524912
USER: SEED 110
USER: STATUS no improvement in best in 6 clusters for 5 generations
USER: GENES 30
USER: genes 0 Translation |==|  0.45336 0.52978 0.59653
USER: genes 1 Rotation |==|  0.44305 0.49784 0.43189 0.99205
USER: genes 2 Torsion [N]-CA--C-[N] |==|  0.49233
USER: genes 3 Torsion [C]-N--CA-[CB] |==|  0.82756
USER: genes 4 Torsion [N]-CA--C-[N] |==|  0.20172
USER: genes 5 Torsion [C]-N--CA-[CB] |==|  0.45115
USER: genes 6 Torsion [N]-CA--C-[O] |==|  0.31855
USER: genes 7 Torsion [N]-CA--CB-[CG] |==|  0.12755
USER: genes 8 Torsion [CA]-CB--CG-[CD] |==|  0.65578
USER: genes 9 Torsion [CB]-CG--CD-[NE] |==|  0.80341
USER: genes 10 Torsion [CG]-CD--NE-[HE] |==|  0.35443
USER: genes 11 Torsion [N]-CA--CB-[CG] |==|  0.55634
USER: genes 12 Torsion [CA]-CB--CG-[CD] |==|  0.42980
USER: genes 13 Torsion [CB]-CG--CD-[NE] |==|  0.60500
USER: genes 14 Torsion [CG]-CD--NE-[CZ] |==|  0.53894
USER: genes 15 Torsion [N]-C--CA-[N] |==|  0.38467
USER: genes 16 Torsion [C]-CA--CB-[CG2] |==|  0.20662
USER: genes 17 Torsion [CA]-CB--OG1-[HG1] |==|  0.20387
USER: genes 18 Torsion [C]-CA--N-[C] |==|  0.76815
USER: genes 19 Torsion [N]-C--CA-[N] |==|  0.91347
USER: genes 20 Torsion [C]-CA--CB-[CG] |==|  0.45252
USER: genes 21 Torsion [CA]-CB--CG-[CD1] |==|  0.61206
USER: genes 22 Torsion [C]-CA--N-[C] |==|  0.67973
USER: genes 23 Torsion [N]-C--CA-[N] |==|  0.89288
USER: genes 24 Torsion [C]-CA--N-[C] |==|  0.84009
USER: genes 25 Torsion [N]-C--CA-[N] |==|  0.20105
USER: genes 26 Torsion [C]-CA--CB-[CG2] |==|  0.43342
USER: genes 27 Torsion [CA]-CB--CG1-[CD1] |==|  0.34354
USER: genes 28 Torsion [C]-CA--CB-[CG] |==|  0.76315
USER: genes 29 Torsion [CA]-CB--CG-[CD1] |==|  0.27139
ROOT
ATOM      1  C   THR D 648     -64.149   9.314  -4.494  1.00 57.47 LIG 0.24  C 
ATOM      2 O    THR D 648     -63.116   9.020  -5.100  1.00 58.33 LIG-0.27  OA
ATOM      3  N   PRO D 649     -65.327   8.713  -4.733  1.00 55.77 LIG-0.34  N 
ATOM      4  CA  PRO D 649     -65.454   7.567  -5.646  1.00 54.43 LIG 0.18  C 
ATOM      5  CB  PRO D 649     -66.809   6.970  -5.250  1.00 56.30 LIG 0.04  C 
ATOM      6  CG  PRO D 649     -67.591   8.132  -4.727  1.00 52.90 LIG 0.02  C 
ATOM      7  CD  PRO D 649     -66.578   8.966  -3.991  1.00 52.65 LIG 0.13  C 
ENDROOT
BRANCH 4 8
ATOM      8  C   PRO D 649     -65.455   7.891  -7.144  1.00 62.44 LIG 0.24  C 
ATOM      9  N   ARG D 650     -65.513   6.845  -7.969  1.00 65.13 LIG-0.35  N 
ATOM     10 H    ARG D 650     -65.347   6.038  -7.721  1.00 65.13 LIG 0.16  HD
ATOM     11 O    PRO D 649     -65.408   9.058  -7.530  1.00 64.48 LIG-0.27  OA
BRANCH 9 12
ATOM     12  CA  ARG D 650     -65.866   6.970  -9.385  1.00 68.90 LIG 0.18  C 
BRANCH 12 13
ATOM     13  C   ARG D 650     -64.855   7.890 -10.070  1.00 70.53 LIG 0.24  C 
ATOM     14  N   ARG D 651     -63.634   7.407 -10.278  1.00 72.55 LIG-0.35  N 
ATOM     15 H    ARG D 651     -63.392   6.598 -10.110  1.00 72.55 LIG 0.16  HD
ATOM     16 O    ARG D 650     -65.175   9.035 -10.398  1.00 68.24 LIG-0.27  OA
BRANCH 14 17
ATOM     17  CA  ARG D 651     -62.587   8.265 -10.826  1.00 72.50 LIG 0.16  C 
BRANCH 17 18
ATOM     18  C   ARG D 651     -62.800   8.499 -12.323  1.00 69.52 LIG 0.22  C 
ATOM     19 O    ARG D 651     -63.059   9.624 -12.763  1.00 68.10 LIG-0.29  OA
ENDBRANCH 17 18
BRANCH 17 20
ATOM     20  CB  ARG D 651     -61.183   7.672 -10.585  1.00 76.74 LIG 0.04  C 
BRANCH 20 21
ATOM     21  CG  ARG D 651     -60.931   6.150 -10.879  1.00 75.60 LIG 0.02  C 
BRANCH 21 22
ATOM     22  CD  ARG D 651     -60.375   5.291  -9.710  1.00 74.66 LIG 0.14  C 
BRANCH 22 23
ATOM     23  NE  ARG D 651     -58.980   5.562  -9.345  1.00 75.25 LIG-0.23  N 
ATOM     24 HE   ARG D 651     -58.817   5.729  -8.518  1.00 75.25 LIG 0.18  HD
ATOM     25  CZ  ARG D 651     -57.944   5.574 -10.183  1.00 78.75 LIG 0.67  C 
ATOM     26  NH2 ARG D 651     -56.725   5.837  -9.725  1.00 79.25 LIG-0.23  N 
ATOM     27  NH1 ARG D 651     -58.117   5.306 -11.464  1.00 78.43 LIG-0.23  N 
ATOM     28 2HH2 ARG D 651     -56.055   5.845 -10.265  1.00 79.25 LIG 0.17  HD
ATOM     29 1HH2 ARG D 651     -56.605   6.000  -8.890  1.00 79.25 LIG 0.17  HD
ATOM     30 2HH1 ARG D 651     -57.444   5.315 -12.000  1.00 78.43 LIG 0.17  HD
ATOM     31 1HH1 ARG D 651     -58.901   5.123 -11.763  1.00 78.43 LIG 0.17  HD
ENDBRANCH 22 23
ENDBRANCH 21 22
ENDBRANCH 20 21
ENDBRANCH 17 20
ENDBRANCH 14 17
ENDBRANCH 12 13
BRANCH 12 32
ATOM     32  CB  ARG D 650     -67.291   7.518  -9.554  1.00 66.96 LIG 0.04  C 
BRANCH 32 33
ATOM     33  CG  ARG D 650     -67.935   7.242 -10.911  1.00 73.73 LIG 0.02  C 
BRANCH 33 34
ATOM     34  CD  ARG D 650     -69.468   7.236 -10.814  1.00 75.05 LIG 0.14  C 
BRANCH 34 35
ATOM     35  NE  ARG D 650     -70.110   6.233 -11.647  1.00 81.10 LIG-0.23  N 
ATOM     36 HE   ARG D 650     -69.619   5.610 -11.980  1.00 81.10 LIG 0.18  HD
ATOM     37  CZ  ARG D 650     -71.411   6.220 -11.927  1.00 84.47 LIG 0.67  C 
ATOM     38  NH1 ARG D 650     -72.205   7.167 -11.443  1.00 76.84 LIG-0.23  N 
ATOM     39  NH2 ARG D 650     -71.929   5.261 -12.697  1.00 84.76 LIG-0.23  N 
ATOM     40 1HH1 ARG D 650     -71.879   7.790 -10.947  1.00 76.84 LIG 0.17  HD
ATOM     41 2HH1 ARG D 650     -73.046   7.158 -11.624  1.00 76.84 LIG 0.17  HD
ATOM     42 1HH2 ARG D 650     -71.420   4.645 -13.016  1.00 84.76 LIG 0.17  HD
ATOM     43 2HH2 ARG D 650     -72.770   5.259 -12.873  1.00 84.76 LIG 0.17  HD
ENDBRANCH 34 35
ENDBRANCH 33 34
ENDBRANCH 32 33
ENDBRANCH 12 32
ENDBRANCH 9 12
ENDBRANCH 4 8
BRANCH 1 44
ATOM     44  CA  THR D 648     -64.127  10.373  -3.390  1.00 55.33 LIG 0.20  C 
BRANCH 44 45
ATOM     45  CB  THR D 648     -64.237  11.805  -3.992  1.00 57.91 LIG 0.15  C 
ATOM     46  CG2 THR D 648     -65.667  12.096  -4.469  1.00 54.65 LIG 0.04  C 
BRANCH 45 47
ATOM     47 OG1  THR D 648     -63.861  12.775  -3.001  1.00 51.58 LIG-0.39  OA
ATOM     48 HG1  THR D 648     -63.028  12.755  -2.891  1.00 51.58 LIG 0.21  HD
ENDBRANCH 45 47
ENDBRANCH 44 45
BRANCH 44 49
ATOM     49  N   THR D 648     -62.910  10.215  -2.602  1.00 49.85 LIG-0.34  N 
ATOM     50 H    THR D 648     -62.265  10.734  -2.834  1.00 49.85 LIG 0.16  HD
ATOM     51  C   LEU D 647     -62.836   9.333  -1.612  1.00 48.49 LIG 0.24  C 
ATOM     52 O    LEU D 647     -63.749   8.551  -1.339  1.00 50.57 LIG-0.27  OA
BRANCH 51 53
ATOM     53  CA  LEU D 647     -61.553   9.344  -0.796  1.00 48.52 LIG 0.18  C 
BRANCH 53 54
ATOM     54  CB  LEU D 647     -61.731  10.280   0.399  1.00 42.08 LIG 0.04  C 
BRANCH 54 55
ATOM     55  CG  LEU D 647     -60.750  10.159   1.566  1.00 43.63 LIG-0.02  C 
ATOM     56  CD1 LEU D 647     -61.497  10.303   2.898  1.00 34.09 LIG 0.01  C 
ATOM     57  CD2 LEU D 647     -60.016   8.843   1.495  1.00 37.87 LIG 0.01  C 
ENDBRANCH 54 55
ENDBRANCH 53 54
BRANCH 53 58
ATOM     58  N   LEU D 647     -60.392   9.741  -1.590  1.00 49.21 LIG-0.35  N 
ATOM     59  C   LEU D 646     -59.384   8.904  -1.832  1.00 51.75 LIG 0.24  C 
ATOM     60 O    LEU D 646     -59.393   7.720  -1.490  1.00 46.22 LIG-0.27  OA
ATOM     61 H    LEU D 647     -60.422  10.550  -1.880  1.00 49.21 LIG 0.16  HD
BRANCH 59 62
ATOM     62  CA  LEU D 646     -58.193   9.480  -2.586  1.00 53.11 LIG 0.18  C 
BRANCH 62 63
ATOM     63  N   LEU D 646     -58.622  10.405  -3.628  1.00 56.32 LIG-0.35  N 
ATOM     64  C   ILE D 645     -59.452  10.019  -4.593  1.00 63.27 LIG 0.26  C 
ATOM     65 O    ILE D 645     -59.883   8.863  -4.685  1.00 63.46 LIG-0.27  OA
ATOM     66 H    LEU D 646     -58.297  11.197  -3.560  1.00 56.32 LIG 0.16  HD
BRANCH 64 67
ATOM     67  CA  ILE D 645     -59.881  11.094  -5.595  1.00 63.54 LIG 0.40  C 
ATOM     68  N   ILE D 645     -58.802  11.466  -6.508  1.00 63.63 LIG 0.61  N 
BRANCH 67 69
ATOM     69  CB  ILE D 645     -61.117  10.559  -6.342  1.00 61.73 LIG 0.03  C 
ATOM     70  CG2 ILE D 645     -61.940  11.729  -6.891  1.00 57.36 LIG 0.01  C 
BRANCH 69 71
ATOM     71  CG1 ILE D 645     -60.718   9.579  -7.451  1.00 65.03 LIG 0.00  C 
ATOM     72  CD1 ILE D 645     -61.379   8.213  -7.320  1.00 60.49 LIG 0.01  C 
ENDBRANCH 69 71
ENDBRANCH 67 69
ENDBRANCH 64 67
ENDBRANCH 62 63
BRANCH 62 73
ATOM     73  CB  LEU D 646     -57.241  10.175  -1.617  1.00 52.76 LIG 0.04  C 
BRANCH 73 74
ATOM     74  CG  LEU D 646     -57.596  11.625  -1.300  1.00 58.95 LIG-0.02  C 
ATOM     75  CD1 LEU D 646     -58.364  11.711   0.022  1.00 55.02 LIG 0.01  C 
ATOM     76  CD2 LEU D 646     -56.327  12.473  -1.260  1.00 54.54 LIG 0.01  C 
ENDBRANCH 73 74
ENDBRANCH 62 73
ENDBRANCH 59 62
ENDBRANCH 53 58
ENDBRANCH 51 53
ENDBRANCH 44 49
ENDBRANCH 1 44
TORSDOF 28
ENDMDL
