MODEL 1
USER: ADFR SOLUTION from run 80
USER: SCORE 23.413718 LL:  -3.649 LR: -22.074 RR:   0.000 FEB: -13.721
USER: RMSD 1.859745
USER: SEED 79
USER: STATUS 1 or 2 clusters left
USER: GENES 30
USER: genes 0 Translation |==|  0.53202 0.49121 0.63966
USER: genes 1 Rotation |==|  0.46752 0.45935 0.54650 0.99511
USER: genes 2 Torsion [N]-CA--C-[N] |==|  0.36624
USER: genes 3 Torsion [N]-CA--C-[O] |==|  0.96302
USER: genes 4 Torsion [C]-N--CA-[CB] |==|  0.38305
USER: genes 5 Torsion [N]-CA--C-[N] |==|  0.42605
USER: genes 6 Torsion [C]-N--CA-[C] |==|  0.52925
USER: genes 7 Torsion [N]-CA--C-[O] |==|  0.99674
USER: genes 8 Torsion [N]-CA--CB-[OG] |==|  0.57928
USER: genes 9 Torsion [CA]-CB--OG-[HG] |==|  0.45214
USER: genes 10 Torsion [N]-CA--CB-[CG] |==|  0.49541
USER: genes 11 Torsion [CA]-CB--CG-[CD] |==|  0.45768
USER: genes 12 Torsion [CB]-CG--CD-[NE] |==|  0.63649
USER: genes 13 Torsion [CG]-CD--NE-[CZ] |==|  0.46763
USER: genes 14 Torsion [C]-CA--CB-[CG] |==|  0.75818
USER: genes 15 Torsion [CA]-CB--CG-[CD] |==|  0.54803
USER: genes 16 Torsion [CB]-CG--CD-[NE] |==|  0.77786
USER: genes 17 Torsion [CG]-CD--NE-[CZ] |==|  0.78304
USER: genes 18 Torsion [C]-CA--N-[C] |==|  0.69245
USER: genes 19 Torsion [N]-C--CA-[N] |==|  0.25975
USER: genes 20 Torsion [C]-CA--N-[C] |==|  0.62985
USER: genes 21 Torsion [N]-C--CA-[N] |==|  0.82239
USER: genes 22 Torsion [C]-CA--CB-[CG] |==|  0.64986
USER: genes 23 Torsion [CA]-CB--CG-[CD] |==|  0.79048
USER: genes 24 Torsion [CB]-CG--CD-[OE2] |==|  0.15150
USER: genes 25 Torsion [C]-CA--CB-[CG] |==|  0.36310
USER: genes 26 Torsion [CA]-CB--CG-[CD] |==|  0.53873
USER: genes 27 Torsion [CB]-CG--CD-[CE] |==|  0.69741
USER: genes 28 Torsion [CG]-CD--CE-[NZ] |==|  0.52342
USER: genes 29 Torsion [CD]-CE--NZ-[HZ2] |==|  0.84165
ROOT
ATOM      1  CA  ARG C 380       1.142  -5.574  -8.179  1.00 55.03 LIG 0.18  C 
ENDROOT
BRANCH 1 2
ATOM      2  C   ARG C 380       0.736  -4.470  -9.145  1.00 47.07 LIG 0.24  C 
ATOM      3 O    ARG C 380       0.027  -4.746 -10.136  1.00 43.27 LIG-0.27  OA
ATOM      4  N   PRO C 381       1.135  -3.224  -8.906  1.00 52.47 LIG-0.34  N 
ATOM      5  CA  PRO C 381       1.014  -2.200  -9.945  1.00 50.57 LIG 0.18  C 
ATOM      6  CD  PRO C 381       1.700  -2.686  -7.656  1.00 58.50 LIG 0.13  C 
ATOM      7  CB  PRO C 381       1.067  -0.888  -9.153  1.00 39.15 LIG 0.04  C 
ATOM      8  CG  PRO C 381       1.934  -1.218  -7.977  1.00 58.11 LIG 0.02  C 
BRANCH 5 9
ATOM      9  C   PRO C 381       2.177  -2.304 -10.915  1.00 50.29 LIG 0.24  C 
ATOM     10 O    PRO C 381       3.174  -2.981 -10.655  1.00 49.31 LIG-0.27  OA
ATOM     11  N   ARG C 382       2.033  -1.638 -12.058  1.00 50.68 LIG-0.35  N 
ATOM     12 H    ARG C 382       1.305  -1.245 -12.292  1.00 50.68 LIG 0.16  HD
BRANCH 11 13
ATOM     13  CA  ARG C 382       3.117  -1.519 -13.027  1.00 50.76 LIG 0.18  C 
BRANCH 13 14
ATOM     14  C   ARG C 382       3.768  -0.151 -12.846  1.00 59.22 LIG 0.24  C 
ATOM     15 O    ARG C 382       3.120   0.796 -12.386  1.00 50.32 LIG-0.27  OA
ATOM     16  N   SER C 383       5.045  -0.048 -13.206  1.00 56.43 LIG-0.34  N 
ATOM     17 H    SER C 383       5.499  -0.690 -13.554  1.00 56.43 LIG 0.16  HD
BRANCH 16 18
ATOM     18  CA  SER C 383       5.797   1.197 -13.035  1.00 74.33 LIG 0.19  C 
BRANCH 18 19
ATOM     19  C   SER C 383       7.148   1.164 -13.745  1.00 76.08 LIG 0.22  C 
ATOM     20 O    SER C 383       7.518   0.163 -14.358  1.00 76.81 LIG-0.29  OA
ENDBRANCH 18 19
BRANCH 18 21
ATOM     21  CB  SER C 383       6.004   1.484 -11.552  1.00 65.18 LIG 0.20  C 
BRANCH 21 22
ATOM     22 OG   SER C 383       6.106   2.880 -11.333  1.00 68.82 LIG-0.40  OA
ATOM     23 HG   SER C 383       5.984   3.046 -10.519  1.00 68.82 LIG 0.21  HD
ENDBRANCH 21 22
ENDBRANCH 18 21
ENDBRANCH 16 18
ENDBRANCH 13 14
BRANCH 13 24
ATOM     24  CB  ARG C 382       2.612  -1.704 -14.455  1.00 44.34 LIG 0.04  C 
BRANCH 24 25
ATOM     25  CG  ARG C 382       3.720  -1.544 -15.483  1.00 56.39 LIG 0.02  C 
BRANCH 25 26
ATOM     26  CD  ARG C 382       3.349  -2.073 -16.857  1.00 41.52 LIG 0.14  C 
BRANCH 26 27
ATOM     27  NE  ARG C 382       4.406  -2.942 -17.367  1.00 49.53 LIG-0.23  N 
ATOM     28  CZ  ARG C 382       4.288  -3.727 -18.432  1.00 47.90 LIG 0.67  C 
ATOM     29  NH1 ARG C 382       3.152  -3.757 -19.115  1.00 52.31 LIG-0.23  N 
ATOM     30  NH2 ARG C 382       5.306  -4.487 -18.815  1.00 55.66 LIG-0.23  N 
ATOM     31 1HH1 ARG C 382       2.489  -3.267 -18.869  1.00 52.31 LIG 0.17  HD
ATOM     32 2HH1 ARG C 382       3.078  -4.266 -19.804  1.00 52.31 LIG 0.17  HD
ATOM     33 2HH2 ARG C 382       5.228  -4.994 -19.505  1.00 55.66 LIG 0.17  HD
ATOM     34 1HH2 ARG C 382       6.043  -4.472 -18.373  1.00 55.66 LIG 0.17  HD
ATOM     35 HE   ARG C 382       5.157  -2.946 -16.949  1.00 49.53 LIG 0.18  HD
ENDBRANCH 26 27
ENDBRANCH 25 26
ENDBRANCH 24 25
ENDBRANCH 13 24
ENDBRANCH 11 13
ENDBRANCH 5 9
ENDBRANCH 1 2
BRANCH 1 36
ATOM     36  CB  ARG C 380       2.244  -6.445  -8.795  1.00 43.48 LIG 0.04  C 
BRANCH 36 37
ATOM     37  CG  ARG C 380       1.795  -7.620  -9.672  1.00 54.19 LIG 0.02  C 
BRANCH 37 38
ATOM     38  CD  ARG C 380       2.965  -8.595  -9.828  1.00 65.92 LIG 0.14  C 
BRANCH 38 39
ATOM     39  NE  ARG C 380       3.964  -8.206 -10.827  1.00 79.60 LIG-0.23  N 
ATOM     40  CZ  ARG C 380       3.783  -8.367 -12.138  1.00 87.95 LIG 0.67  C 
ATOM     41  NH1 ARG C 380       2.644  -8.897 -12.576  1.00 74.29 LIG-0.23  N 
ATOM     42  NH2 ARG C 380       4.718  -7.999 -13.016  1.00 56.55 LIG-0.23  N 
ATOM     43 2HH1 ARG C 380       2.517  -9.005 -13.420  1.00 74.29 LIG 0.17  HD
ATOM     44 1HH1 ARG C 380       2.036  -9.132 -12.015  1.00 74.29 LIG 0.17  HD
ATOM     45 2HH2 ARG C 380       4.585  -8.110 -13.859  1.00 56.55 LIG 0.17  HD
ATOM     46 1HH2 ARG C 380       5.454  -7.651 -12.740  1.00 56.55 LIG 0.17  HD
ATOM     47 HE   ARG C 380       4.702  -7.858 -10.555  1.00 79.60 LIG 0.18  HD
ENDBRANCH 38 39
ENDBRANCH 37 38
ENDBRANCH 36 37
ENDBRANCH 1 36
BRANCH 1 48
ATOM     48  N   ARG C 380      -0.043  -6.360  -7.850  1.00 47.32 LIG-0.35  N 
ATOM     49  C   LYS C 379      -0.587  -6.328  -6.637  1.00 45.76 LIG 0.24  C 
ATOM     50 O    LYS C 379      -0.169  -5.598  -5.734  1.00 54.38 LIG-0.27  OA
ATOM     51 H    ARG C 380      -0.347  -6.833  -8.500  1.00 47.32 LIG 0.16  HD
BRANCH 49 52
ATOM     52  CA  LYS C 379      -1.761  -7.269  -6.406  1.00 43.75 LIG 0.18  C 
BRANCH 52 53
ATOM     53  N   LYS C 379      -1.260  -8.509  -5.841  1.00 44.28 LIG-0.35  N 
ATOM     54 H    LYS C 379      -0.706  -8.395  -5.194  1.00 44.28 LIG 0.16  HD
ATOM     55  C   GLU C 378      -1.625  -9.705  -6.282  1.00 60.53 LIG 0.26  C 
ATOM     56 O    GLU C 378      -2.508  -9.870  -7.121  1.00 56.79 LIG-0.27  OA
BRANCH 55 57
ATOM     57  CA  GLU C 378      -0.888 -10.890  -5.667  1.00 69.99 LIG 0.40  C 
ATOM     58  N   GLU C 378       0.530 -10.849  -6.003  1.00 74.89 LIG 0.61  N 
BRANCH 57 59
ATOM     59  CB  GLU C 378      -1.084 -10.904  -4.147  1.00 53.06 LIG 0.06  C 
BRANCH 59 60
ATOM     60  CG  GLU C 378       0.206 -10.948  -3.339  1.00 67.66 LIG 0.12  C 
BRANCH 60 61
ATOM     61  CD  GLU C 378       0.851 -12.326  -3.347  1.00 85.24 LIG 0.17  C 
ATOM     62 OE2  GLU C 378       1.099 -12.869  -4.445  1.00 90.60 LIG-0.65  OA
ATOM     63 OE1  GLU C 378       1.101 -12.870  -2.250  1.00103.34 LIG-0.65  OA
ENDBRANCH 60 61
ENDBRANCH 59 60
ENDBRANCH 57 59
ENDBRANCH 55 57
ENDBRANCH 52 53
BRANCH 52 64
ATOM     64  CB  LYS C 379      -2.800  -6.615  -5.486  1.00 37.46 LIG 0.04  C 
BRANCH 64 65
ATOM     65  CG  LYS C 379      -4.231  -6.690  -6.014  1.00 41.02 LIG 0.00  C 
BRANCH 65 66
ATOM     66  CD  LYS C 379      -5.152  -5.747  -5.253  1.00 41.74 LIG 0.03  C 
BRANCH 66 67
ATOM     67  CE  LYS C 379      -6.111  -6.520  -4.361  1.00 41.21 LIG 0.23  C 
BRANCH 67 68
ATOM     68  NZ  LYS C 379      -7.160  -5.651  -3.752  1.00 39.67 LIG-0.08  N 
ATOM     69 HZ1  LYS C 379      -7.669  -6.137  -3.207  1.00 39.67 LIG 0.27  HD
ATOM     70 HZ2  LYS C 379      -6.773  -4.997  -3.291  1.00 39.67 LIG 0.27  HD
ATOM     71 HZ3  LYS C 379      -7.667  -5.301  -4.395  1.00 39.67 LIG 0.27  HD
ENDBRANCH 67 68
ENDBRANCH 66 67
ENDBRANCH 65 66
ENDBRANCH 64 65
ENDBRANCH 52 64
ENDBRANCH 49 52
ENDBRANCH 1 48
TORSDOF 28
ENDMDL
MODEL 2
USER: ADFR SOLUTION from run 138
USER: SCORE 22.606185 LL:  -3.734 LR: -20.626 RR:   0.000 FEB: -12.274
USER: RMSD 1.762181
USER: SEED 137
USER: STATUS 1 or 2 clusters left
USER: GENES 30
USER: genes 0 Translation |==|  0.53370 0.45624 0.62673
USER: genes 1 Rotation |==|  0.51833 0.52790 0.49517 0.99886
USER: genes 2 Torsion [N]-CA--C-[N] |==|  0.33484
USER: genes 3 Torsion [N]-CA--C-[O] |==|  0.91309
USER: genes 4 Torsion [C]-N--CA-[CB] |==|  0.46856
USER: genes 5 Torsion [N]-CA--C-[N] |==|  0.95430
USER: genes 6 Torsion [C]-N--CA-[C] |==|  0.51818
USER: genes 7 Torsion [N]-CA--C-[O] |==|  0.81739
USER: genes 8 Torsion [N]-CA--CB-[OG] |==|  0.05668
USER: genes 9 Torsion [CA]-CB--OG-[HG] |==|  0.33546
USER: genes 10 Torsion [N]-CA--CB-[CG] |==|  0.64003
USER: genes 11 Torsion [CA]-CB--CG-[CD] |==|  0.71469
USER: genes 12 Torsion [CB]-CG--CD-[NE] |==|  0.57486
USER: genes 13 Torsion [CG]-CD--NE-[CZ] |==|  0.52684
USER: genes 14 Torsion [C]-CA--CB-[CG] |==|  0.44575
USER: genes 15 Torsion [CA]-CB--CG-[CD] |==|  0.51401
USER: genes 16 Torsion [CB]-CG--CD-[NE] |==|  0.55176
USER: genes 17 Torsion [CG]-CD--NE-[CZ] |==|  0.49109
USER: genes 18 Torsion [C]-CA--N-[C] |==|  0.76501
USER: genes 19 Torsion [N]-C--CA-[N] |==|  0.37222
USER: genes 20 Torsion [C]-CA--N-[C] |==|  0.61584
USER: genes 21 Torsion [N]-C--CA-[N] |==|  0.36437
USER: genes 22 Torsion [C]-CA--CB-[CG] |==|  0.03232
USER: genes 23 Torsion [CA]-CB--CG-[CD] |==|  0.61807
USER: genes 24 Torsion [CB]-CG--CD-[OE2] |==|  0.41022
USER: genes 25 Torsion [C]-CA--CB-[CG] |==|  0.53041
USER: genes 26 Torsion [CA]-CB--CG-[CD] |==|  0.43140
USER: genes 27 Torsion [CB]-CG--CD-[CE] |==|  0.52161
USER: genes 28 Torsion [CG]-CD--CE-[NZ] |==|  0.46215
USER: genes 29 Torsion [CD]-CE--NZ-[HZ2] |==|  0.86520
ROOT
ATOM      1  CA  ARG C 380       1.183  -6.387  -8.499  1.00 55.03 LIG 0.18  C 
ENDROOT
BRANCH 1 2
ATOM      2  C   ARG C 380       0.810  -5.046  -9.113  1.00 47.07 LIG 0.24  C 
ATOM      3 O    ARG C 380      -0.026  -5.001 -10.040  1.00 43.27 LIG-0.27  OA
ATOM      4  N   PRO C 381       1.375  -3.939  -8.639  1.00 52.47 LIG-0.34  N 
ATOM      5  CA  PRO C 381       1.267  -2.681  -9.380  1.00 50.57 LIG 0.18  C 
ATOM      6  CD  PRO C 381       2.128  -3.782  -7.382  1.00 58.50 LIG 0.13  C 
ATOM      7  CB  PRO C 381       1.556  -1.618  -8.312  1.00 39.15 LIG 0.04  C 
ATOM      8  CG  PRO C 381       2.497  -2.307  -7.372  1.00 58.11 LIG 0.02  C 
BRANCH 5 9
ATOM      9  C   PRO C 381       2.301  -2.640 -10.490  1.00 50.29 LIG 0.24  C 
ATOM     10 O    PRO C 381       3.392  -3.204 -10.376  1.00 49.31 LIG-0.27  OA
ATOM     11  N   ARG C 382       1.940  -1.981 -11.587  1.00 50.68 LIG-0.35  N 
ATOM     12 H    ARG C 382       1.149  -1.669 -11.718  1.00 50.68 LIG 0.16  HD
BRANCH 11 13
ATOM     13  CA  ARG C 382       2.872  -1.729 -12.681  1.00 50.76 LIG 0.18  C 
BRANCH 13 14
ATOM     14  C   ARG C 382       3.917  -0.729 -12.193  1.00 59.22 LIG 0.24  C 
ATOM     15 O    ARG C 382       4.977  -0.579 -12.811  1.00 50.32 LIG-0.27  OA
ATOM     16  N   SER C 383       3.619  -0.048 -11.089  1.00 56.43 LIG-0.34  N 
ATOM     17 H    SER C 383       2.898  -0.164 -10.634  1.00 56.43 LIG 0.16  HD
BRANCH 16 18
ATOM     18  CA  SER C 383       4.515   0.975 -10.549  1.00 74.33 LIG 0.19  C 
BRANCH 18 19
ATOM     19  C   SER C 383       4.045   1.508  -9.197  1.00 76.08 LIG 0.22  C 
ATOM     20 O    SER C 383       2.997   2.146  -9.098  1.00 76.81 LIG-0.29  OA
ENDBRANCH 18 19
BRANCH 18 21
ATOM     21  CB  SER C 383       4.648   2.130 -11.536  1.00 65.18 LIG 0.20  C 
BRANCH 21 22
ATOM     22 OG   SER C 383       3.557   2.130 -12.439  1.00 68.82 LIG-0.40  OA
ATOM     23 HG   SER C 383       3.143   2.859 -12.379  1.00 68.82 LIG 0.21  HD
ENDBRANCH 21 22
ENDBRANCH 18 21
ENDBRANCH 16 18
ENDBRANCH 13 14
BRANCH 13 24
ATOM     24  CB  ARG C 382       2.150  -1.209 -13.922  1.00 44.34 LIG 0.04  C 
BRANCH 24 25
ATOM     25  CG  ARG C 382       2.526  -1.984 -15.174  1.00 56.39 LIG 0.02  C 
BRANCH 25 26
ATOM     26  CD  ARG C 382       3.508  -1.246 -16.067  1.00 41.52 LIG 0.14  C 
BRANCH 26 27
ATOM     27  NE  ARG C 382       3.349  -1.674 -17.455  1.00 49.53 LIG-0.23  N 
ATOM     28  CZ  ARG C 382       4.178  -1.352 -18.442  1.00 47.90 LIG 0.67  C 
ATOM     29  NH1 ARG C 382       5.239  -0.595 -18.201  1.00 52.31 LIG-0.23  N 
ATOM     30  NH2 ARG C 382       3.945  -1.786 -19.674  1.00 55.66 LIG-0.23  N 
ATOM     31 1HH1 ARG C 382       5.392  -0.311 -17.404  1.00 52.31 LIG 0.17  HD
ATOM     32 2HH1 ARG C 382       5.774  -0.389 -18.842  1.00 52.31 LIG 0.17  HD
ATOM     33 2HH2 ARG C 382       4.482  -1.577 -20.312  1.00 55.66 LIG 0.17  HD
ATOM     34 1HH2 ARG C 382       3.257  -2.275 -19.834  1.00 55.66 LIG 0.17  HD
ATOM     35 HE   ARG C 382       2.672  -2.168 -17.646  1.00 49.53 LIG 0.18  HD
ENDBRANCH 26 27
ENDBRANCH 25 26
ENDBRANCH 24 25
ENDBRANCH 13 24
ENDBRANCH 11 13
ENDBRANCH 5 9
ENDBRANCH 1 2
BRANCH 1 36
ATOM     36  CB  ARG C 380       1.865  -7.282  -9.543  1.00 43.48 LIG 0.04  C 
BRANCH 36 37
ATOM     37  CG  ARG C 380       2.705  -8.451  -9.015  1.00 54.19 LIG 0.02  C 
BRANCH 37 38
ATOM     38  CD  ARG C 380       3.395  -9.136 -10.196  1.00 65.92 LIG 0.14  C 
BRANCH 38 39
ATOM     39  NE  ARG C 380       3.876 -10.494  -9.927  1.00 79.60 LIG-0.23  N 
ATOM     40  CZ  ARG C 380       4.444 -11.262 -10.858  1.00 87.95 LIG 0.67  C 
ATOM     41  NH1 ARG C 380       4.596 -10.784 -12.090  1.00 74.29 LIG-0.23  N 
ATOM     42  NH2 ARG C 380       4.870 -12.494 -10.573  1.00 56.55 LIG-0.23  N 
ATOM     43 2HH1 ARG C 380       4.962 -11.271 -12.697  1.00 74.29 LIG 0.17  HD
ATOM     44 1HH1 ARG C 380       4.329  -9.988 -12.279  1.00 74.29 LIG 0.17  HD
ATOM     45 2HH2 ARG C 380       5.235 -12.976 -11.186  1.00 56.55 LIG 0.17  HD
ATOM     46 1HH2 ARG C 380       4.780 -12.807  -9.777  1.00 56.55 LIG 0.17  HD
ATOM     47 HE   ARG C 380       3.787 -10.811  -9.133  1.00 79.60 LIG 0.18  HD
ENDBRANCH 38 39
ENDBRANCH 37 38
ENDBRANCH 36 37
ENDBRANCH 1 36
BRANCH 1 48
ATOM     48  N   ARG C 380      -0.027  -7.006  -7.969  1.00 47.32 LIG-0.35  N 
ATOM     49  C   LYS C 379      -0.485  -6.715  -6.755  1.00 45.76 LIG 0.24  C 
ATOM     50 O    LYS C 379       0.041  -5.871  -6.025  1.00 54.38 LIG-0.27  OA
ATOM     51 H    ARG C 380      -0.405  -7.563  -8.504  1.00 47.32 LIG 0.16  HD
BRANCH 49 52
ATOM     52  CA  LYS C 379      -1.701  -7.505  -6.292  1.00 43.75 LIG 0.18  C 
BRANCH 52 53
ATOM     53  N   LYS C 379      -1.473  -7.960  -4.933  1.00 44.28 LIG-0.35  N 
ATOM     54 H    LYS C 379      -1.107  -7.368  -4.428  1.00 44.28 LIG 0.16  HD
ATOM     55  C   GLU C 378      -1.798  -9.174  -4.512  1.00 60.53 LIG 0.26  C 
ATOM     56 O    GLU C 378      -2.432  -9.975  -5.196  1.00 56.79 LIG-0.27  OA
BRANCH 55 57
ATOM     57  CA  GLU C 378      -1.352  -9.524  -3.095  1.00 69.99 LIG 0.40  C 
ATOM     58  N   GLU C 378      -2.457 -10.090  -2.331  1.00 74.89 LIG 0.61  N 
BRANCH 57 59
ATOM     59  CB  GLU C 378      -0.168 -10.496  -3.139  1.00 53.06 LIG 0.06  C 
BRANCH 59 60
ATOM     60  CG  GLU C 378       0.464 -10.668  -4.514  1.00 67.66 LIG 0.12  C 
BRANCH 60 61
ATOM     61  CD  GLU C 378       0.793 -12.120  -4.826  1.00 85.24 LIG 0.17  C 
ATOM     62 OE2  GLU C 378       0.725 -12.513  -6.011  1.00 90.60 LIG-0.65  OA
ATOM     63 OE1  GLU C 378       1.114 -12.871  -3.880  1.00103.34 LIG-0.65  OA
ENDBRANCH 60 61
ENDBRANCH 59 60
ENDBRANCH 57 59
ENDBRANCH 55 57
ENDBRANCH 52 53
BRANCH 52 64
ATOM     64  CB  LYS C 379      -2.968  -6.645  -6.389  1.00 37.46 LIG 0.04  C 
BRANCH 64 65
ATOM     65  CG  LYS C 379      -4.188  -7.257  -5.704  1.00 41.02 LIG 0.00  C 
BRANCH 65 66
ATOM     66  CD  LYS C 379      -5.190  -6.186  -5.297  1.00 41.74 LIG 0.03  C 
BRANCH 66 67
ATOM     67  CE  LYS C 379      -6.308  -6.774  -4.450  1.00 41.21 LIG 0.23  C 
BRANCH 67 68
ATOM     68  NZ  LYS C 379      -7.124  -5.731  -3.765  1.00 39.67 LIG-0.08  N 
ATOM     69 HZ1  LYS C 379      -7.650  -6.115  -3.159  1.00 39.67 LIG 0.27  HD
ATOM     70 HZ2  LYS C 379      -6.585  -5.149  -3.362  1.00 39.67 LIG 0.27  HD
ATOM     71 HZ3  LYS C 379      -7.625  -5.304  -4.364  1.00 39.67 LIG 0.27  HD
ENDBRANCH 67 68
ENDBRANCH 66 67
ENDBRANCH 65 66
ENDBRANCH 64 65
ENDBRANCH 52 64
ENDBRANCH 49 52
ENDBRANCH 1 48
TORSDOF 28
ENDMDL
