MODEL 1
USER: ADFR SOLUTION from run 176
USER: SCORE 16.934654 LL:  -4.045 LR: -13.220 RR:   0.000 FEB:  -8.149
USER: RMSD 0.918145
USER: SEED 175
USER: STATUS 1 or 2 clusters left
USER: GENES 19
USER: genes 0 Translation |==|  0.50017 0.59767 0.66067
USER: genes 1 Rotation |==|  0.43384 0.46581 0.49723 0.99442
USER: genes 2 Torsion [C]-N--CA-[C] |==|  0.76244
USER: genes 3 Torsion [N]-CA--C-[N] |==|  0.40556
USER: genes 4 Torsion [C]-N--CA-[C] |==|  0.78294
USER: genes 5 Torsion [N]-CA--C-[N] |==|  0.35007
USER: genes 6 Torsion [C]-N--CA-[C] |==|  0.56401
USER: genes 7 Torsion [N]-CA--C-[O] |==|  0.99926
USER: genes 8 Torsion [N]-CA--CB-[CG1] |==|  0.59574
USER: genes 9 Torsion [N]-CA--CB-[CG] |==|  0.47130
USER: genes 10 Torsion [CA]-CB--CG-[CD] |==|  0.58005
USER: genes 11 Torsion [CB]-CG--CD-[NE2] |==|  0.53090
USER: genes 12 Torsion [O]-C--CA-[CB] |==|  0.88885
USER: genes 13 Torsion [N]-C--CA-[N] |==|  0.36375
USER: genes 14 Torsion [C]-CA--N-[C] |==|  0.82582
USER: genes 15 Torsion [N]-C--CA-[N] |==|  0.79182
USER: genes 16 Torsion [C]-CA--CB-[CG] |==|  0.13631
USER: genes 17 Torsion [CA]-CB--CG-[CD2] |==|  0.68435
USER: genes 18 Torsion [CE2]-CZ--OH-[HH] |==|  0.04683
ROOT
ATOM      1  C   PRO F   5      26.390 -24.874  33.059  1.00 22.19 LIG 0.24  C 
ATOM      2 O    PRO F   5      26.028 -25.301  34.148  1.00 23.65 LIG-0.27  OA
ATOM      3  N   GLY F   6      25.561 -24.678  32.041  1.00 19.88 LIG-0.35  N 
ATOM      4 H    GLY F   6      25.801 -24.323  31.295  1.00 19.88 LIG 0.16  HD
ENDROOT
BRANCH 3 5
ATOM      5  CA  GLY F   6      24.149 -25.050  32.095  1.00 18.82 LIG 0.23  C 
BRANCH 5 6
ATOM      6  C   GLY F   6      23.844 -26.481  31.731  1.00 19.38 LIG 0.24  C 
ATOM      7  N   GLN F   7      22.834 -27.023  32.392  1.00 19.21 LIG-0.35  N 
ATOM      8 H    GLN F   7      22.326 -26.592  32.935  1.00 19.21 LIG 0.16  HD
ATOM      9 O    GLY F   6      24.523 -27.127  30.898  1.00 20.81 LIG-0.27  OA
BRANCH 7 10
ATOM     10  CA  GLN F   7      22.504 -28.426  32.243  1.00 20.89 LIG 0.18  C 
BRANCH 10 11
ATOM     11  C   GLN F   7      21.752 -28.573  30.931  1.00 21.73 LIG 0.24  C 
ATOM     12  N   VAL F   8      22.239 -29.470  30.073  1.00 23.67 LIG-0.34  N 
ATOM     13 H    VAL F   8      22.926 -29.957  30.245  1.00 23.67 LIG 0.16  HD
ATOM     14 O    GLN F   7      20.765 -27.898  30.700  1.00 20.56 LIG-0.27  OA
BRANCH 12 15
ATOM     15  CA  VAL F   8      21.660 -29.722  28.755  1.00 26.59 LIG 0.19  C 
BRANCH 15 16
ATOM     16  C   VAL F   8      22.055 -31.115  28.301  1.00 31.87 LIG 0.20  C 
ATOM     17 O    VAL F   8      22.762 -31.835  29.011  1.00 34.57 LIG-0.65  OA
ATOM     18 OXT  VAL F   8      21.721 -31.542  27.197  1.00 35.27 LIG-0.65  OA
ENDBRANCH 15 16
BRANCH 15 19
ATOM     19  CB  VAL F   8      22.196 -28.716  27.700  1.00 27.17 LIG 0.01  C 
ATOM     20  CG1 VAL F   8      21.133 -28.358  26.658  1.00 30.44 LIG 0.01  C 
ATOM     21  CG2 VAL F   8      22.689 -27.450  28.348  1.00 24.96 LIG 0.01  C 
ENDBRANCH 15 19
ENDBRANCH 12 15
ENDBRANCH 10 11
BRANCH 10 22
ATOM     22  CB  GLN F   7      21.659 -28.884  33.432  1.00 21.57 LIG 0.04  C 
BRANCH 22 23
ATOM     23  CG  GLN F   7      21.034 -30.266  33.288  1.00 23.35 LIG 0.10  C 
BRANCH 23 24
ATOM     24  CD  GLN F   7      19.738 -30.395  34.061  1.00 24.40 LIG 0.21  C 
ATOM     25  NE2 GLN F   7      19.249 -31.615  34.179  1.00 26.54 LIG-0.37  N 
ATOM     26 22HE GLN F   7      18.511 -31.743  34.603  1.00 26.54 LIG 0.16  HD
ATOM     27 21HE GLN F   7      19.668 -32.282  33.834  1.00 26.54 LIG 0.16  HD
ATOM     28 OE1  GLN F   7      19.186 -29.404  34.533  1.00 22.98 LIG-0.27  OA
ENDBRANCH 23 24
ENDBRANCH 22 23
ENDBRANCH 10 22
ENDBRANCH 7 10
ENDBRANCH 5 6
ENDBRANCH 3 5
BRANCH 1 29
ATOM     29  CA  PRO F   5      27.863 -24.546  32.865  1.00 24.01 LIG 0.18  C 
ATOM     30  CB  PRO F   5      28.422 -23.877  34.119  1.00 26.63 LIG 0.04  C 
ATOM     31  CG  PRO F   5      28.519 -22.444  33.801  1.00 25.90 LIG 0.02  C 
ATOM     32  CD  PRO F   5      28.521 -22.265  32.312  1.00 24.07 LIG 0.13  C 
ATOM     33  N   PRO F   5      28.174 -23.596  31.786  1.00 22.96 LIG-0.34  N 
ATOM     34  C   TYR F   4      28.346 -24.020  30.510  1.00 22.64 LIG 0.24  C 
ATOM     35 O    TYR F   4      28.128 -25.164  30.148  1.00 22.73 LIG-0.27  OA
BRANCH 34 36
ATOM     36  CA  TYR F   4      28.845 -23.019  29.477  1.00 23.00 LIG 0.18  C 
BRANCH 36 37
ATOM     37  N   TYR F   4      29.964 -23.631  28.741  1.00 26.39 LIG-0.35  N 
ATOM     38 H    TYR F   4      29.823 -23.740  27.900  1.00 26.39 LIG 0.16  HD
ATOM     39  C   GLY F   3      31.080 -23.973  29.357  1.00 29.77 LIG 0.25  C 
ATOM     40 O    GLY F   3      31.202 -23.876  30.572  1.00 31.07 LIG-0.27  OA
BRANCH 39 41
ATOM     41  CA  GLY F   3      32.216 -24.545  28.505  1.00 33.82 LIG 0.47  C 
ATOM     42  N   GLY F   3      31.911 -25.945  28.109  1.00 37.49 LIG 0.61  N 
ENDBRANCH 39 41
ENDBRANCH 36 37
BRANCH 36 43
ATOM     43  CB  TYR F   4      27.737 -22.681  28.524  1.00 21.26 LIG 0.07  C 
BRANCH 43 44
ATOM     44  CG  TYR F   4      26.463 -22.322  29.174  1.00 18.65 LIG-0.06  A 
ATOM     45  CD2 TYR F   4      25.342 -23.132  29.041  1.00 17.47 LIG 0.01  A 
ATOM     46  CE2 TYR F   4      24.135 -22.803  29.649  1.00 16.54 LIG 0.04  A 
ATOM     47  CZ  TYR F   4      24.044 -21.644  30.404  1.00 17.16 LIG 0.07  A 
ATOM     48  CE1 TYR F   4      25.153 -20.832  30.556  1.00 18.26 LIG 0.04  A 
ATOM     49  CD1 TYR F   4      26.352 -21.156  29.926  1.00 19.09 LIG 0.01  A 
BRANCH 47 50
ATOM     50 OH   TYR F   4      22.835 -21.248  31.009  1.00 17.27 LIG-0.36  OA
ATOM     51 HH   TYR F   4      22.307 -21.901  31.034  1.00 17.27 LIG 0.22  HD
ENDBRANCH 47 50
ENDBRANCH 43 44
ENDBRANCH 36 43
ENDBRANCH 34 36
ENDBRANCH 1 29
TORSDOF 17
ENDMDL
MODEL 2
USER: ADFR SOLUTION from run 7
USER: SCORE 15.121851 LL:  -3.935 LR: -12.280 RR:   0.000 FEB:  -7.209
USER: RMSD 3.485147
USER: SEED 250822
USER: STATUS no improvement in best in 2 clusters for 5 generations
USER: GENES 19
USER: genes 0 Translation |==|  0.50971 0.60611 0.66385
USER: genes 1 Rotation |==|  0.47323 0.50068 0.47611 0.99871
USER: genes 2 Torsion [C]-N--CA-[C] |==|  0.77555
USER: genes 3 Torsion [N]-CA--C-[N] |==|  0.54269
USER: genes 4 Torsion [C]-N--CA-[C] |==|  0.19999
USER: genes 5 Torsion [N]-CA--C-[N] |==|  0.55642
USER: genes 6 Torsion [C]-N--CA-[C] |==|  0.70847
USER: genes 7 Torsion [N]-CA--C-[O] |==|  0.87202
USER: genes 8 Torsion [N]-CA--CB-[CG1] |==|  0.46797
USER: genes 9 Torsion [N]-CA--CB-[CG] |==|  0.63126
USER: genes 10 Torsion [CA]-CB--CG-[CD] |==|  0.63590
USER: genes 11 Torsion [CB]-CG--CD-[NE2] |==|  0.33354
USER: genes 12 Torsion [O]-C--CA-[CB] |==|  0.85860
USER: genes 13 Torsion [N]-C--CA-[N] |==|  0.35231
USER: genes 14 Torsion [C]-CA--N-[C] |==|  0.80892
USER: genes 15 Torsion [N]-C--CA-[N] |==|  0.57819
USER: genes 16 Torsion [C]-CA--CB-[CG] |==|  0.13549
USER: genes 17 Torsion [CA]-CB--CG-[CD2] |==|  0.68663
USER: genes 18 Torsion [CE2]-CZ--OH-[HH] |==|  0.09137
ROOT
ATOM      1  C   PRO F   5      26.612 -24.710  33.112  1.00 22.19 LIG 0.24  C 
ATOM      2 O    PRO F   5      26.340 -25.284  34.158  1.00 23.65 LIG-0.27  OA
ATOM      3  N   GLY F   6      25.692 -24.278  32.258  1.00 19.88 LIG-0.35  N 
ATOM      4 H    GLY F   6      25.876 -23.823  31.552  1.00 19.88 LIG 0.16  HD
ENDROOT
BRANCH 3 5
ATOM      5  CA  GLY F   6      24.266 -24.540  32.440  1.00 18.82 LIG 0.23  C 
BRANCH 5 6
ATOM      6  C   GLY F   6      23.798 -25.903  32.000  1.00 19.38 LIG 0.24  C 
ATOM      7  N   GLN F   7      22.487 -26.029  31.865  1.00 19.21 LIG-0.35  N 
ATOM      8 H    GLN F   7      21.930 -25.379  31.941  1.00 19.21 LIG 0.16  HD
ATOM      9 O    GLY F   6      24.584 -26.863  31.818  1.00 20.81 LIG-0.27  OA
BRANCH 7 10
ATOM     10  CA  GLN F   7      21.881 -27.311  31.571  1.00 20.89 LIG 0.18  C 
BRANCH 10 11
ATOM     11  C   GLN F   7      21.983 -28.155  32.829  1.00 21.73 LIG 0.24  C 
ATOM     12  N   VAL F   8      21.875 -29.474  32.661  1.00 23.67 LIG-0.34  N 
ATOM     13 H    VAL F   8      21.771 -29.840  31.891  1.00 23.67 LIG 0.16  HD
ATOM     14 O    GLN F   7      22.155 -27.634  33.916  1.00 20.56 LIG-0.27  OA
BRANCH 12 15
ATOM     15  CA  VAL F   8      21.923 -30.434  33.763  1.00 26.59 LIG 0.19  C 
BRANCH 15 16
ATOM     16  C   VAL F   8      23.271 -31.130  33.752  1.00 31.87 LIG 0.20  C 
ATOM     17 O    VAL F   8      23.749 -31.566  32.702  1.00 34.57 LIG-0.65  OA
ATOM     18 OXT  VAL F   8      23.896 -31.320  34.794  1.00 35.27 LIG-0.65  OA
ENDBRANCH 15 16
BRANCH 15 19
ATOM     19  CB  VAL F   8      20.829 -31.526  33.607  1.00 27.17 LIG 0.01  C 
ATOM     20  CG1 VAL F   8      21.039 -32.688  34.583  1.00 30.44 LIG 0.01  C 
ATOM     21  CG2 VAL F   8      19.451 -30.958  33.816  1.00 24.96 LIG 0.01  C 
ENDBRANCH 15 19
ENDBRANCH 12 15
ENDBRANCH 10 11
BRANCH 10 22
ATOM     22  CB  GLN F   7      22.604 -27.963  30.392  1.00 21.57 LIG 0.04  C 
BRANCH 22 23
ATOM     23  CG  GLN F   7      21.696 -28.526  29.306  1.00 23.35 LIG 0.10  C 
BRANCH 23 24
ATOM     24  CD  GLN F   7      22.069 -29.942  28.921  1.00 24.40 LIG 0.21  C 
ATOM     25  NE2 GLN F   7      21.136 -30.859  29.095  1.00 26.54 LIG-0.37  N 
ATOM     26 22HE GLN F   7      21.298 -31.681  28.899  1.00 26.54 LIG 0.16  HD
ATOM     27 21HE GLN F   7      20.365 -30.635  29.405  1.00 26.54 LIG 0.16  HD
ATOM     28 OE1  GLN F   7      23.187 -30.201  28.482  1.00 22.98 LIG-0.27  OA
ENDBRANCH 23 24
ENDBRANCH 22 23
ENDBRANCH 10 22
ENDBRANCH 7 10
ENDBRANCH 5 6
ENDBRANCH 3 5
BRANCH 1 29
ATOM     29  CA  PRO F   5      28.077 -24.473  32.777  1.00 24.01 LIG 0.18  C 
ATOM     30  CB  PRO F   5      28.787 -23.817  33.959  1.00 26.63 LIG 0.04  C 
ATOM     31  CG  PRO F   5      28.936 -22.398  33.603  1.00 25.90 LIG 0.02  C 
ATOM     32  CD  PRO F   5      28.810 -22.244  32.117  1.00 24.07 LIG 0.13  C 
ATOM     33  N   PRO F   5      28.341 -23.560  31.653  1.00 22.96 LIG-0.34  N 
ATOM     34  C   TYR F   4      28.369 -24.014  30.377  1.00 22.64 LIG 0.24  C 
ATOM     35 O    TYR F   4      28.053 -25.149  30.060  1.00 22.73 LIG-0.27  OA
BRANCH 34 36
ATOM     36  CA  TYR F   4      28.827 -23.062  29.281  1.00 23.00 LIG 0.18  C 
BRANCH 36 37
ATOM     37  N   TYR F   4      29.906 -23.714  28.520  1.00 26.39 LIG-0.35  N 
ATOM     38 H    TYR F   4      29.697 -23.931  27.715  1.00 26.39 LIG 0.16  HD
ATOM     39  C   GLY F   3      31.089 -23.932  29.065  1.00 29.77 LIG 0.25  C 
ATOM     40 O    GLY F   3      31.312 -23.682  30.243  1.00 31.07 LIG-0.27  OA
BRANCH 39 41
ATOM     41  CA  GLY F   3      32.172 -24.558  28.184  1.00 33.82 LIG 0.47  C 
ATOM     42  N   GLY F   3      33.130 -25.336  29.014  1.00 37.49 LIG 0.61  N 
ENDBRANCH 39 41
ENDBRANCH 36 37
BRANCH 36 43
ATOM     43  CB  TYR F   4      27.678 -22.753  28.366  1.00 21.26 LIG 0.07  C 
BRANCH 43 44
ATOM     44  CG  TYR F   4      26.436 -22.363  29.059  1.00 18.65 LIG-0.06  A 
ATOM     45  CD2 TYR F   4      25.313 -23.179  29.021  1.00 17.47 LIG 0.01  A 
ATOM     46  CE2 TYR F   4      24.136 -22.820  29.670  1.00 16.54 LIG 0.04  A 
ATOM     47  CZ  TYR F   4      24.078 -21.625  30.370  1.00 17.16 LIG 0.07  A 
ATOM     48  CE1 TYR F   4      25.191 -20.806  30.426  1.00 18.26 LIG 0.04  A 
ATOM     49  CD1 TYR F   4      26.359 -21.161  29.756  1.00 19.09 LIG 0.01  A 
BRANCH 47 50
ATOM     50 OH   TYR F   4      22.899 -21.200  31.012  1.00 17.27 LIG-0.36  OA
ATOM     51 HH   TYR F   4      22.475 -21.869  31.291  1.00 17.27 LIG 0.22  HD
ENDBRANCH 47 50
ENDBRANCH 43 44
ENDBRANCH 36 43
ENDBRANCH 34 36
ENDBRANCH 1 29
TORSDOF 17
ENDMDL
MODEL 3
USER: ADFR SOLUTION from run 195
USER: SCORE 15.207701 LL:  -4.211 LR: -11.609 RR:   0.000 FEB:  -6.538
USER: RMSD 2.381224
USER: SEED 194
USER: STATUS no improvement in best in 4 clusters for 5 generations
USER: GENES 19
USER: genes 0 Translation |==|  0.50841 0.58856 0.64212
USER: genes 1 Rotation |==|  0.53198 0.46605 0.51485 0.99760
USER: genes 2 Torsion [C]-N--CA-[C] |==|  0.76549
USER: genes 3 Torsion [N]-CA--C-[N] |==|  0.54442
USER: genes 4 Torsion [C]-N--CA-[C] |==|  0.69862
USER: genes 5 Torsion [N]-CA--C-[N] |==|  0.52700
USER: genes 6 Torsion [C]-N--CA-[C] |==|  0.62065
USER: genes 7 Torsion [N]-CA--C-[O] |==|  0.42168
USER: genes 8 Torsion [N]-CA--CB-[CG1] |==|  0.43252
USER: genes 9 Torsion [N]-CA--CB-[CG] |==|  0.54075
USER: genes 10 Torsion [CA]-CB--CG-[CD] |==|  0.16319
USER: genes 11 Torsion [CB]-CG--CD-[NE2] |==|  0.50838
USER: genes 12 Torsion [O]-C--CA-[CB] |==|  0.82122
USER: genes 13 Torsion [N]-C--CA-[N] |==|  0.37944
USER: genes 14 Torsion [C]-CA--N-[C] |==|  0.81376
USER: genes 15 Torsion [N]-C--CA-[N] |==|  0.71809
USER: genes 16 Torsion [C]-CA--CB-[CG] |==|  0.14109
USER: genes 17 Torsion [CA]-CB--CG-[CD2] |==|  0.19355
USER: genes 18 Torsion [CE2]-CZ--OH-[HH] |==|  0.57395
ROOT
ATOM      1  C   PRO F   5      26.582 -25.052  32.753  1.00 22.19 LIG 0.24  C 
ATOM      2 O    PRO F   5      26.290 -25.890  33.596  1.00 23.65 LIG-0.27  OA
ATOM      3  N   GLY F   6      25.710 -24.567  31.877  1.00 19.88 LIG-0.35  N 
ATOM      4 H    GLY F   6      25.896 -23.936  31.322  1.00 19.88 LIG 0.16  HD
ENDROOT
BRANCH 3 5
ATOM      5  CA  GLY F   6      24.341 -25.066  31.772  1.00 18.82 LIG 0.23  C 
BRANCH 5 6
ATOM      6  C   GLY F   6      24.165 -26.292  30.912  1.00 19.38 LIG 0.24  C 
ATOM      7  N   GLN F   7      22.917 -26.545  30.549  1.00 19.21 LIG-0.35  N 
ATOM      8 H    GLN F   7      22.252 -26.026  30.711  1.00 19.21 LIG 0.16  HD
ATOM      9 O    GLY F   6      25.118 -27.043  30.599  1.00 20.81 LIG-0.27  OA
BRANCH 7 10
ATOM     10  CA  GLN F   7      22.575 -27.755  29.829  1.00 20.89 LIG 0.18  C 
BRANCH 10 11
ATOM     11  C   GLN F   7      22.243 -27.350  28.403  1.00 21.73 LIG 0.24  C 
ATOM     12  N   VAL F   8      21.708 -28.298  27.633  1.00 23.67 LIG-0.34  N 
ATOM     13 H    VAL F   8      21.539 -29.092  27.918  1.00 23.67 LIG 0.16  HD
ATOM     14 O    GLN F   7      22.461 -26.218  28.010  1.00 20.56 LIG-0.27  OA
BRANCH 12 15
ATOM     15  CA  VAL F   8      21.353 -28.093  26.230  1.00 26.59 LIG 0.19  C 
BRANCH 15 16
ATOM     16  C   VAL F   8      19.996 -28.720  25.968  1.00 31.87 LIG 0.20  C 
ATOM     17 O    VAL F   8      19.255 -28.279  25.087  1.00 34.57 LIG-0.65  OA
ATOM     18 OXT  VAL F   8      19.583 -29.650  26.658  1.00 35.27 LIG-0.65  OA
ENDBRANCH 15 16
BRANCH 15 19
ATOM     19  CB  VAL F   8      22.376 -28.777  25.282  1.00 27.17 LIG 0.01  C 
ATOM     20  CG1 VAL F   8      21.763 -29.101  23.917  1.00 30.44 LIG 0.01  C 
ATOM     21  CG2 VAL F   8      23.595 -27.918  25.078  1.00 24.96 LIG 0.01  C 
ENDBRANCH 15 19
ENDBRANCH 12 15
ENDBRANCH 10 11
BRANCH 10 22
ATOM     22  CB  GLN F   7      21.391 -28.440  30.511  1.00 21.57 LIG 0.04  C 
BRANCH 22 23
ATOM     23  CG  GLN F   7      21.143 -29.882  30.084  1.00 23.35 LIG 0.10  C 
BRANCH 23 24
ATOM     24  CD  GLN F   7      22.341 -30.773  30.342  1.00 24.40 LIG 0.21  C 
ATOM     25  NE2 GLN F   7      22.231 -32.026  29.944  1.00 26.54 LIG-0.37  N 
ATOM     26 22HE GLN F   7      22.879 -32.577  30.072  1.00 26.54 LIG 0.16  HD
ATOM     27 21HE GLN F   7      21.511 -32.293  29.555  1.00 26.54 LIG 0.16  HD
ATOM     28 OE1  GLN F   7      23.343 -30.333  30.901  1.00 22.98 LIG-0.27  OA
ENDBRANCH 23 24
ENDBRANCH 22 23
ENDBRANCH 10 22
ENDBRANCH 7 10
ENDBRANCH 5 6
ENDBRANCH 3 5
BRANCH 1 29
ATOM     29  CA  PRO F   5      28.012 -24.535  32.712  1.00 24.01 LIG 0.18  C 
ATOM     30  CB  PRO F   5      28.337 -23.783  34.001  1.00 26.63 LIG 0.04  C 
ATOM     31  CG  PRO F   5      28.282 -22.354  33.658  1.00 25.90 LIG 0.02  C 
ATOM     32  CD  PRO F   5      28.426 -22.194  32.174  1.00 24.07 LIG 0.13  C 
ATOM     33  N   PRO F   5      28.315 -23.565  31.648  1.00 22.96 LIG-0.34  N 
ATOM     34  C   TYR F   4      28.682 -23.977  30.410  1.00 22.64 LIG 0.24  C 
ATOM     35 O    TYR F   4      28.655 -25.145  30.056  1.00 22.73 LIG-0.27  OA
BRANCH 34 36
ATOM     36  CA  TYR F   4      29.158 -22.932  29.412  1.00 23.00 LIG 0.18  C 
BRANCH 36 37
ATOM     37  N   TYR F   4      30.347 -23.459  28.719  1.00 26.39 LIG-0.35  N 
ATOM     38 H    TYR F   4      30.232 -23.621  27.883  1.00 26.39 LIG 0.16  HD
ATOM     39  C   GLY F   3      31.481 -23.656  29.365  1.00 29.77 LIG 0.25  C 
ATOM     40 O    GLY F   3      31.571 -23.491  30.575  1.00 31.07 LIG-0.27  OA
BRANCH 39 41
ATOM     41  CA  GLY F   3      32.683 -24.147  28.556  1.00 33.82 LIG 0.47  C 
ATOM     42  N   GLY F   3      32.882 -25.607  28.757  1.00 37.49 LIG 0.61  N 
ENDBRANCH 39 41
ENDBRANCH 36 37
BRANCH 36 43
ATOM     43  CB  TYR F   4      28.073 -22.653  28.414  1.00 21.26 LIG 0.07  C 
BRANCH 43 44
ATOM     44  CG  TYR F   4      26.760 -22.348  29.012  1.00 18.65 LIG-0.06  A 
ATOM     45  CD2 TYR F   4      26.549 -21.160  29.698  1.00 17.47 LIG 0.01  A 
ATOM     46  CE2 TYR F   4      25.314 -20.862  30.267  1.00 16.54 LIG 0.04  A 
ATOM     47  CZ  TYR F   4      24.271 -21.767  30.149  1.00 17.16 LIG 0.07  A 
ATOM     48  CE1 TYR F   4      24.462 -22.951  29.459  1.00 18.26 LIG 0.04  A 
ATOM     49  CD1 TYR F   4      25.707 -23.252  28.911  1.00 19.09 LIG 0.01  A 
BRANCH 47 50
ATOM     50 OH   TYR F   4      23.014 -21.529  30.737  1.00 17.27 LIG-0.36  OA
ATOM     51 HH   TYR F   4      22.636 -22.262  30.897  1.00 17.27 LIG 0.22  HD
ENDBRANCH 47 50
ENDBRANCH 43 44
ENDBRANCH 36 43
ENDBRANCH 34 36
ENDBRANCH 1 29
TORSDOF 17
ENDMDL
MODEL 4
USER: ADFR SOLUTION from run 36
USER: SCORE 15.517082 LL:  -4.448 LR: -11.435 RR:   0.000 FEB:  -6.363
USER: RMSD 3.994175
USER: SEED 35
USER: STATUS no improvement in best in 2 clusters for 5 generations
USER: GENES 19
USER: genes 0 Translation |==|  0.51625 0.62200 0.65816
USER: genes 1 Rotation |==|  0.46269 0.49453 0.45855 0.99685
USER: genes 2 Torsion [C]-N--CA-[C] |==|  0.79494
USER: genes 3 Torsion [N]-CA--C-[N] |==|  0.46584
USER: genes 4 Torsion [C]-N--CA-[C] |==|  0.17305
USER: genes 5 Torsion [N]-CA--C-[N] |==|  0.05000
USER: genes 6 Torsion [C]-N--CA-[C] |==|  0.61660
USER: genes 7 Torsion [N]-CA--C-[O] |==|  0.91471
USER: genes 8 Torsion [N]-CA--CB-[CG1] |==|  0.52954
USER: genes 9 Torsion [N]-CA--CB-[CG] |==|  0.54230
USER: genes 10 Torsion [CA]-CB--CG-[CD] |==|  0.48005
USER: genes 11 Torsion [CB]-CG--CD-[NE2] |==|  0.42553
USER: genes 12 Torsion [O]-C--CA-[CB] |==|  0.86352
USER: genes 13 Torsion [N]-C--CA-[N] |==|  0.34471
USER: genes 14 Torsion [C]-CA--N-[C] |==|  0.82604
USER: genes 15 Torsion [N]-C--CA-[N] |==|  0.60883
USER: genes 16 Torsion [C]-CA--CB-[CG] |==|  0.11299
USER: genes 17 Torsion [CA]-CB--CG-[CD2] |==|  0.70990
USER: genes 18 Torsion [CE2]-CZ--OH-[HH] |==|  0.07146
ROOT
ATOM      1  C   PRO F   5      26.764 -24.400  33.018  1.00 22.19 LIG 0.24  C 
ATOM      2 O    PRO F   5      26.427 -24.907  34.080  1.00 23.65 LIG-0.27  OA
ATOM      3  N   GLY F   6      25.897 -23.945  32.121  1.00 19.88 LIG-0.35  N 
ATOM      4 H    GLY F   6      26.130 -23.535  31.401  1.00 19.88 LIG 0.16  HD
ENDROOT
BRANCH 3 5
ATOM      5  CA  GLY F   6      24.453 -24.100  32.274  1.00 18.82 LIG 0.23  C 
BRANCH 5 6
ATOM      6  C   GLY F   6      23.924 -25.492  32.038  1.00 19.38 LIG 0.24  C 
ATOM      7  N   GLN F   7      22.672 -25.687  32.421  1.00 19.21 LIG-0.35  N 
ATOM      8 H    GLN F   7      22.155 -25.066  32.713  1.00 19.21 LIG 0.16  HD
ATOM      9 O    GLY F   6      24.627 -26.411  31.557  1.00 20.81 LIG-0.27  OA
BRANCH 7 10
ATOM     10  CA  GLN F   7      22.068 -27.003  32.375  1.00 20.89 LIG 0.18  C 
BRANCH 10 11
ATOM     11  C   GLN F   7      22.858 -27.893  33.317  1.00 21.73 LIG 0.24  C 
ATOM     12  N   VAL F   8      23.619 -27.268  34.216  1.00 23.67 LIG-0.34  N 
ATOM     13 H    VAL F   8      23.656 -26.412  34.283  1.00 23.67 LIG 0.16  HD
ATOM     14 O    GLN F   7      22.785 -29.106  33.236  1.00 20.56 LIG-0.27  OA
BRANCH 12 15
ATOM     15  CA  VAL F   8      24.466 -27.966  35.182  1.00 26.59 LIG 0.19  C 
BRANCH 15 16
ATOM     16  C   VAL F   8      24.345 -27.280  36.530  1.00 31.87 LIG 0.20  C 
ATOM     17 O    VAL F   8      24.125 -26.069  36.606  1.00 34.57 LIG-0.65  OA
ATOM     18 OXT  VAL F   8      24.511 -27.904  37.577  1.00 35.27 LIG-0.65  OA
ENDBRANCH 15 16
BRANCH 15 19
ATOM     19  CB  VAL F   8      25.961 -27.915  34.762  1.00 27.17 LIG 0.01  C 
ATOM     20  CG1 VAL F   8      26.825 -28.852  35.610  1.00 30.44 LIG 0.01  C 
ATOM     21  CG2 VAL F   8      26.137 -28.270  33.310  1.00 24.96 LIG 0.01  C 
ENDBRANCH 15 19
ENDBRANCH 12 15
ENDBRANCH 10 11
BRANCH 10 22
ATOM     22  CB  GLN F   7      22.098 -27.531  30.940  1.00 21.57 LIG 0.04  C 
BRANCH 22 23
ATOM     23  CG  GLN F   7      21.189 -28.723  30.670  1.00 23.35 LIG 0.10  C 
BRANCH 23 24
ATOM     24  CD  GLN F   7      21.135 -29.084  29.200  1.00 24.40 LIG 0.21  C 
ATOM     25  NE2 GLN F   7      20.861 -30.344  28.919  1.00 26.54 LIG-0.37  N 
ATOM     26 22HE GLN F   7      20.826 -30.605  28.100  1.00 26.54 LIG 0.16  HD
ATOM     27 21HE GLN F   7      20.719 -30.906  29.555  1.00 26.54 LIG 0.16  HD
ATOM     28 OE1  GLN F   7      21.346 -28.237  28.336  1.00 22.98 LIG-0.27  OA
ENDBRANCH 23 24
ENDBRANCH 22 23
ENDBRANCH 10 22
ENDBRANCH 7 10
ENDBRANCH 5 6
ENDBRANCH 3 5
BRANCH 1 29
ATOM     29  CA  PRO F   5      28.250 -24.279  32.714  1.00 24.01 LIG 0.18  C 
ATOM     30  CB  PRO F   5      28.981 -23.662  33.904  1.00 26.63 LIG 0.04  C 
ATOM     31  CG  PRO F   5      29.245 -22.263  33.533  1.00 25.90 LIG 0.02  C 
ATOM     32  CD  PRO F   5      29.164 -22.122  32.042  1.00 24.07 LIG 0.13  C 
ATOM     33  N   PRO F   5      28.607 -23.405  31.585  1.00 22.96 LIG-0.34  N 
ATOM     34  C   TYR F   4      28.629 -23.879  30.315  1.00 22.64 LIG 0.24  C 
ATOM     35 O    TYR F   4      28.234 -24.991  30.006  1.00 22.73 LIG-0.27  OA
BRANCH 34 36
ATOM     36  CA  TYR F   4      29.181 -22.979  29.219  1.00 23.00 LIG 0.18  C 
BRANCH 36 37
ATOM     37  N   TYR F   4      30.270 -23.698  28.534  1.00 26.39 LIG-0.35  N 
ATOM     38 H    TYR F   4      30.127 -23.857  27.701  1.00 26.39 LIG 0.16  HD
ATOM     39  C   GLY F   3      31.365 -24.053  29.181  1.00 29.77 LIG 0.25  C 
ATOM     40 O    GLY F   3      31.487 -23.878  30.386  1.00 31.07 LIG-0.27  OA
BRANCH 39 41
ATOM     41  CA  GLY F   3      32.472 -24.740  28.378  1.00 33.82 LIG 0.47  C 
ATOM     42  N   GLY F   3      33.090 -25.831  29.178  1.00 37.49 LIG 0.61  N 
ENDBRANCH 39 41
ENDBRANCH 36 37
BRANCH 36 43
ATOM     43  CB  TYR F   4      28.095 -22.653  28.237  1.00 21.26 LIG 0.07  C 
BRANCH 43 44
ATOM     44  CG  TYR F   4      26.783 -22.374  28.850  1.00 18.65 LIG-0.06  A 
ATOM     45  CD2 TYR F   4      25.761 -23.313  28.805  1.00 17.47 LIG 0.01  A 
ATOM     46  CE2 TYR F   4      24.520 -23.060  29.380  1.00 16.54 LIG 0.04  A 
ATOM     47  CZ  TYR F   4      24.294 -21.847  30.011  1.00 17.16 LIG 0.07  A 
ATOM     48  CE1 TYR F   4      25.304 -20.905  30.074  1.00 18.26 LIG 0.04  A 
ATOM     49  CD1 TYR F   4      26.537 -21.156  29.477  1.00 19.09 LIG 0.01  A 
BRANCH 47 50
ATOM     50 OH   TYR F   4      23.043 -21.529  30.576  1.00 17.27 LIG-0.36  OA
ATOM     51 HH   TYR F   4      22.640 -22.237  30.782  1.00 17.27 LIG 0.22  HD
ENDBRANCH 47 50
ENDBRANCH 43 44
ENDBRANCH 36 43
ENDBRANCH 34 36
ENDBRANCH 1 29
TORSDOF 17
ENDMDL
MODEL 5
USER: ADFR SOLUTION from run 179
USER: SCORE 16.214236 LL:  -5.763 LR: -11.388 RR:   0.000 FEB:  -6.317
USER: RMSD 3.305702
USER: SEED 178
USER: STATUS no improvement in best in 2 clusters for 5 generations
USER: GENES 19
USER: genes 0 Translation |==|  0.50087 0.58575 0.64229
USER: genes 1 Rotation |==|  0.61984 0.50750 0.49264 0.98531
USER: genes 2 Torsion [C]-N--CA-[C] |==|  0.81873
USER: genes 3 Torsion [N]-CA--C-[N] |==|  0.87926
USER: genes 4 Torsion [C]-N--CA-[C] |==|  0.51111
USER: genes 5 Torsion [N]-CA--C-[N] |==|  0.30123
USER: genes 6 Torsion [C]-N--CA-[C] |==|  0.19323
USER: genes 7 Torsion [N]-CA--C-[O] |==|  0.77022
USER: genes 8 Torsion [N]-CA--CB-[CG1] |==|  0.51655
USER: genes 9 Torsion [N]-CA--CB-[CG] |==|  0.57236
USER: genes 10 Torsion [CA]-CB--CG-[CD] |==|  0.27040
USER: genes 11 Torsion [CB]-CG--CD-[NE2] |==|  0.53586
USER: genes 12 Torsion [O]-C--CA-[CB] |==|  0.76023
USER: genes 13 Torsion [N]-C--CA-[N] |==|  0.38430
USER: genes 14 Torsion [C]-CA--N-[C] |==|  0.83086
USER: genes 15 Torsion [N]-C--CA-[N] |==|  0.87883
USER: genes 16 Torsion [C]-CA--CB-[CG] |==|  0.14377
USER: genes 17 Torsion [CA]-CB--CG-[CD2] |==|  0.68941
USER: genes 18 Torsion [CE2]-CZ--OH-[HH] |==|  0.06181
ROOT
ATOM      1  C   PRO F   5      26.406 -25.107  32.756  1.00 22.19 LIG 0.24  C 
ATOM      2 O    PRO F   5      26.190 -26.182  33.300  1.00 23.65 LIG-0.27  OA
ATOM      3  N   GLY F   6      25.446 -24.328  32.274  1.00 19.88 LIG-0.35  N 
ATOM      4 H    GLY F   6      25.589 -23.546  31.945  1.00 19.88 LIG 0.16  HD
ENDROOT
BRANCH 3 5
ATOM      5  CA  GLY F   6      24.041 -24.730  32.258  1.00 18.82 LIG 0.23  C 
BRANCH 5 6
ATOM      6  C   GLY F   6      23.717 -25.905  31.371  1.00 19.38 LIG 0.24  C 
ATOM      7  N   GLN F   7      24.294 -25.884  30.180  1.00 19.21 LIG-0.35  N 
ATOM      8 H    GLN F   7      24.873 -25.298  29.935  1.00 19.21 LIG 0.16  HD
ATOM      9 O    GLY F   6      22.924 -26.815  31.714  1.00 20.81 LIG-0.27  OA
BRANCH 7 10
ATOM     10  CA  GLN F   7      23.979 -26.877  29.174  1.00 20.89 LIG 0.18  C 
BRANCH 10 11
ATOM     11  C   GLN F   7      24.885 -26.613  27.984  1.00 21.73 LIG 0.24  C 
ATOM     12  N   VAL F   8      25.862 -27.498  27.782  1.00 23.67 LIG-0.34  N 
ATOM     13 H    VAL F   8      25.974 -28.192  28.277  1.00 23.67 LIG 0.16  HD
ATOM     14 O    GLN F   7      24.709 -25.642  27.270  1.00 20.56 LIG-0.27  OA
BRANCH 12 15
ATOM     15  CA  VAL F   8      26.842 -27.386  26.703  1.00 26.59 LIG 0.19  C 
BRANCH 15 16
ATOM     16  C   VAL F   8      27.763 -26.216  26.993  1.00 31.87 LIG 0.20  C 
ATOM     17 O    VAL F   8      27.432 -25.063  26.705  1.00 34.57 LIG-0.65  OA
ATOM     18 OXT  VAL F   8      28.880 -26.392  27.477  1.00 35.27 LIG-0.65  OA
ENDBRANCH 15 16
BRANCH 15 19
ATOM     19  CB  VAL F   8      26.151 -27.111  25.338  1.00 27.17 LIG 0.01  C 
ATOM     20  CG1 VAL F   8      27.149 -27.137  24.178  1.00 30.44 LIG 0.01  C 
ATOM     21  CG2 VAL F   8      25.060 -28.110  25.064  1.00 24.96 LIG 0.01  C 
ENDBRANCH 15 19
ENDBRANCH 12 15
ENDBRANCH 10 11
BRANCH 10 22
ATOM     22  CB  GLN F   7      22.502 -26.773  28.793  1.00 21.57 LIG 0.04  C 
BRANCH 22 23
ATOM     23  CG  GLN F   7      21.877 -28.057  28.263  1.00 23.35 LIG 0.10  C 
BRANCH 23 24
ATOM     24  CD  GLN F   7      21.126 -28.817  29.336  1.00 24.40 LIG 0.21  C 
ATOM     25  NE2 GLN F   7      20.781 -30.056  29.040  1.00 26.54 LIG-0.37  N 
ATOM     26 22HE GLN F   7      20.346 -30.530  29.611  1.00 26.54 LIG 0.16  HD
ATOM     27 21HE GLN F   7      20.991 -30.390  28.276  1.00 26.54 LIG 0.16  HD
ATOM     28 OE1  GLN F   7      20.855 -28.286  30.410  1.00 22.98 LIG-0.27  OA
ENDBRANCH 23 24
ENDBRANCH 22 23
ENDBRANCH 10 22
ENDBRANCH 7 10
ENDBRANCH 5 6
ENDBRANCH 3 5
BRANCH 1 29
ATOM     29  CA  PRO F   5      27.848 -24.637  32.633  1.00 24.01 LIG 0.18  C 
ATOM     30  CB  PRO F   5      28.268 -23.890  33.897  1.00 26.63 LIG 0.04  C 
ATOM     31  CG  PRO F   5      28.240 -22.461  33.548  1.00 25.90 LIG 0.02  C 
ATOM     32  CD  PRO F   5      28.307 -22.314  32.057  1.00 24.07 LIG 0.13  C 
ATOM     33  N   PRO F   5      28.123 -23.682  31.547  1.00 22.96 LIG-0.34  N 
ATOM     34  C   TYR F   4      28.407 -24.113  30.294  1.00 22.64 LIG 0.24  C 
ATOM     35 O    TYR F   4      28.323 -25.280  29.950  1.00 22.73 LIG-0.27  OA
BRANCH 34 36
ATOM     36  CA  TYR F   4      28.861 -23.089  29.264  1.00 23.00 LIG 0.18  C 
BRANCH 36 37
ATOM     37  N   TYR F   4      29.964 -23.674  28.482  1.00 26.39 LIG-0.35  N 
ATOM     38 H    TYR F   4      29.807 -23.748  27.640  1.00 26.39 LIG 0.16  HD
ATOM     39  C   GLY F   3      31.090 -24.045  29.063  1.00 29.77 LIG 0.25  C 
ATOM     40 O    GLY F   3      31.234 -23.998  30.278  1.00 31.07 LIG-0.27  OA
BRANCH 39 41
ATOM     41  CA  GLY F   3      32.207 -24.586  28.168  1.00 33.82 LIG 0.47  C 
ATOM     42  N   GLY F   3      31.652 -25.526  27.158  1.00 37.49 LIG 0.61  N 
ENDBRANCH 39 41
ENDBRANCH 36 37
BRANCH 36 43
ATOM     43  CB  TYR F   4      27.720 -22.748  28.351  1.00 21.26 LIG 0.07  C 
BRANCH 43 44
ATOM     44  CG  TYR F   4      26.480 -22.355  29.048  1.00 18.65 LIG-0.06  A 
ATOM     45  CD2 TYR F   4      25.354 -23.167  29.007  1.00 17.47 LIG 0.01  A 
ATOM     46  CE2 TYR F   4      24.179 -22.806  29.659  1.00 16.54 LIG 0.04  A 
ATOM     47  CZ  TYR F   4      24.127 -21.614  30.365  1.00 17.16 LIG 0.07  A 
ATOM     48  CE1 TYR F   4      25.243 -20.800  30.424  1.00 18.26 LIG 0.04  A 
ATOM     49  CD1 TYR F   4      26.410 -21.156  29.750  1.00 19.09 LIG 0.01  A 
BRANCH 47 50
ATOM     50 OH   TYR F   4      22.951 -21.187  31.011  1.00 17.27 LIG-0.36  OA
ATOM     51 HH   TYR F   4      22.455 -21.850  31.158  1.00 17.27 LIG 0.22  HD
ENDBRANCH 47 50
ENDBRANCH 43 44
ENDBRANCH 36 43
ENDBRANCH 34 36
ENDBRANCH 1 29
TORSDOF 17
ENDMDL
