MODEL 1
USER: ADFR SOLUTION from run 111
USER: SCORE 18.571472 LL:  -4.350 LR: -16.620 RR:   0.000 FEB: -10.058
USER: RMSD 2.987991
USER: SEED 110
USER: STATUS no improvement in best in 15 clusters for 5 generations
USER: GENES 24
USER: genes 0 Translation |==|  0.37822 0.55425 0.60439
USER: genes 1 Rotation |==|  0.50031 0.47649 0.50252 0.99944
USER: genes 2 Torsion [CB]-CA--N-[C] |==|  0.36675
USER: genes 3 Torsion [N]-C--CA-[N] |==|  0.90383
USER: genes 4 Torsion [C]-CA--CB-[CG] |==|  0.45073
USER: genes 5 Torsion [CA]-CB--CG-[CD2] |==|  0.92086
USER: genes 6 Torsion [C]-CA--N-[C] |==|  0.66968
USER: genes 7 Torsion [N]-C--CA-[N] |==|  0.85000
USER: genes 8 Torsion [C]-CA--N-[C] |==|  0.85867
USER: genes 9 Torsion [N]-C--CA-[N] |==|  0.09207
USER: genes 10 Torsion [C]-CA--CB-[CG2] |==|  0.24427
USER: genes 11 Torsion [CA]-CB--CG1-[CD1] |==|  0.66840
USER: genes 12 Torsion [C]-CA--CB-[CG] |==|  0.02977
USER: genes 13 Torsion [CA]-CB--CG-[CD1] |==|  0.25301
USER: genes 14 Torsion [N]-CA--CB-[CG2] |==|  0.56882
USER: genes 15 Torsion [CA]-CB--OG1-[HG1] |==|  0.33323
USER: genes 16 Torsion [N]-CA--C-[N] |==|  0.33999
USER: genes 17 Torsion [N]-CA--C-[N] |==|  0.52995
USER: genes 18 Torsion [C]-N--CA-[C] |==|  0.72725
USER: genes 19 Torsion [N]-CA--C-[O] |==|  0.92891
USER: genes 20 Torsion [N]-CA--CB-[CG] |==|  0.43438
USER: genes 21 Torsion [CA]-CB--CG-[CD] |==|  0.75769
USER: genes 22 Torsion [CB]-CG--CD-[NE] |==|  0.64404
USER: genes 23 Torsion [CG]-CD--NE-[HE] |==|  0.06012
ROOT
ATOM      1  CA  THR D 648     -65.002  10.433  -5.933  1.00 62.87 LIG 0.20  C 
ENDROOT
BRANCH 1 2
ATOM      2  N   THR D 648     -63.760  10.332  -5.170  1.00 56.91 LIG-0.34  N 
ATOM      3  C   LEU D 647     -63.670   9.601  -4.063  1.00 59.35 LIG 0.24  C 
ATOM      4 O    LEU D 647     -64.613   8.949  -3.612  1.00 56.20 LIG-0.27  OA
ATOM      5 H    THR D 648     -63.105  10.783  -5.499  1.00 56.91 LIG 0.16  HD
BRANCH 3 6
ATOM      6  CA  LEU D 647     -62.316   9.598  -3.377  1.00 55.15 LIG 0.18  C 
BRANCH 6 7
ATOM      7  CB  LEU D 647     -62.285  10.729  -2.300  1.00 49.69 LIG 0.04  C 
BRANCH 7 8
ATOM      8  CG  LEU D 647     -61.239  10.736  -1.179  1.00 48.41 LIG-0.02  C 
ATOM      9  CD2 LEU D 647     -60.762   9.341  -0.803  1.00 46.46 LIG 0.01  C 
ATOM     10  CD1 LEU D 647     -61.801  11.435   0.050  1.00 42.39 LIG 0.01  C 
ENDBRANCH 7 8
ENDBRANCH 6 7
BRANCH 6 11
ATOM     11  N   LEU D 647     -61.217   9.668  -4.316  1.00 57.83 LIG-0.35  N 
ATOM     12  C   LEU D 646     -60.314   8.688  -4.389  1.00 69.64 LIG 0.24  C 
ATOM     13 O    LEU D 646     -60.347   7.704  -3.646  1.00 59.31 LIG-0.27  OA
ATOM     14 H    LEU D 647     -61.204  10.377  -4.803  1.00 57.83 LIG 0.16  HD
BRANCH 12 15
ATOM     15  CA  LEU D 646     -59.202   8.795  -5.480  1.00 75.89 LIG 0.18  C 
BRANCH 15 16
ATOM     16  N   LEU D 646     -59.620   8.983  -6.837  1.00 90.15 LIG-0.35  N 
ATOM     17 H    LEU D 646     -59.235   9.636  -7.243  1.00 90.15 LIG 0.16  HD
ATOM     18  C   ILE D 645     -60.535   8.191  -7.394  1.00 94.17 LIG 0.26  C 
ATOM     19 O    ILE D 645     -61.042   7.229  -6.806  1.00104.89 LIG-0.27  OA
BRANCH 18 20
ATOM     20  CA  ILE D 645     -60.937   8.524  -8.826  1.00 87.61 LIG 0.40  C 
ATOM     21  N   ILE D 645     -59.820   9.092  -9.641  1.00 97.17 LIG 0.61  N 
BRANCH 20 22
ATOM     22  CB  ILE D 645     -61.440   7.154  -9.359  1.00 83.91 LIG 0.03  C 
ATOM     23  CG2 ILE D 645     -62.924   6.971  -9.054  1.00 71.96 LIG 0.01  C 
BRANCH 22 24
ATOM     24  CG1 ILE D 645     -61.123   6.954 -10.853  1.00 78.38 LIG 0.00  C 
ATOM     25  CD1 ILE D 645     -62.346   6.763 -11.734  1.00 60.94 LIG 0.01  C 
ENDBRANCH 22 24
ENDBRANCH 20 22
ENDBRANCH 18 20
ENDBRANCH 15 16
BRANCH 15 26
ATOM     26  CB  LEU D 646     -58.271   9.969  -5.115  1.00 77.70 LIG 0.04  C 
BRANCH 26 27
ATOM     27  CG  LEU D 646     -58.455  10.571  -3.718  1.00 75.60 LIG-0.02  C 
ATOM     28  CD1 LEU D 646     -57.558   9.901  -2.684  1.00 71.06 LIG 0.01  C 
ATOM     29  CD2 LEU D 646     -58.198  12.064  -3.768  1.00 73.48 LIG 0.01  C 
ENDBRANCH 26 27
ENDBRANCH 15 26
ENDBRANCH 12 15
ENDBRANCH 6 11
ENDBRANCH 3 6
ENDBRANCH 1 2
BRANCH 1 30
ATOM     30  CB  THR D 648     -65.324  11.912  -6.268  1.00 65.76 LIG 0.15  C 
ATOM     31  CG2 THR D 648     -66.819  12.138  -6.499  1.00 59.42 LIG 0.04  C 
BRANCH 30 32
ATOM     32 OG1  THR D 648     -64.892  12.746  -5.183  1.00 66.48 LIG-0.39  OA
ATOM     33 HG1  THR D 648     -64.321  13.295  -5.462  1.00 66.48 LIG 0.21  HD
ENDBRANCH 30 32
ENDBRANCH 1 30
BRANCH 1 34
ATOM     34  C   THR D 648     -64.928   9.540  -7.188  1.00 62.56 LIG 0.24  C 
ATOM     35 O    THR D 648     -64.002   9.682  -7.995  1.00 59.73 LIG-0.27  OA
ATOM     36  N   PRO D 649     -65.879   8.591  -7.329  1.00 65.34 LIG-0.34  N 
ATOM     37  CA  PRO D 649     -65.936   7.705  -8.501  1.00 70.60 LIG 0.18  C 
ATOM     38  CD  PRO D 649     -66.853   8.195  -6.290  1.00 66.58 LIG 0.13  C 
ATOM     39  CB  PRO D 649     -66.911   6.604  -8.063  1.00 67.49 LIG 0.04  C 
ATOM     40  CG  PRO D 649     -67.754   7.231  -7.003  1.00 65.73 LIG 0.02  C 
BRANCH 37 41
ATOM     41  C   PRO D 649     -66.457   8.378  -9.776  1.00 77.20 LIG 0.24  C 
ATOM     42  N   ARG D 650     -66.734   7.565 -10.795  1.00 83.37 LIG-0.35  N 
ATOM     43 H    ARG D 650     -66.597   6.716 -10.772  1.00 83.37 LIG 0.16  HD
ATOM     44 O    PRO D 649     -66.609   9.605  -9.818  1.00 68.92 LIG-0.27  OA
BRANCH 42 45
ATOM     45  CA  ARG D 650     -67.302   8.039 -12.057  1.00 76.40 LIG 0.16  C 
BRANCH 45 46
ATOM     46  C   ARG D 650     -68.812   7.836 -12.103  1.00 81.79 LIG 0.22  C 
ATOM     47 O    ARG D 650     -69.349   6.955 -11.432  1.00 80.18 LIG-0.29  OA
ENDBRANCH 45 46
BRANCH 45 48
ATOM     48  CB  ARG D 650     -66.636   7.329 -13.233  1.00 77.84 LIG 0.04  C 
BRANCH 48 49
ATOM     49  CG  ARG D 650     -67.492   7.304 -14.489  1.00 87.31 LIG 0.02  C 
BRANCH 49 50
ATOM     50  CD  ARG D 650     -68.441   6.114 -14.532  1.00 89.00 LIG 0.14  C 
BRANCH 50 51
ATOM     51  NE  ARG D 650     -68.353   5.347 -15.774  1.00 88.84 LIG-0.23  N 
ATOM     52 HE   ARG D 650     -67.632   5.417 -16.238  1.00 88.84 LIG 0.18  HD
ATOM     53  CZ  ARG D 650     -69.313   4.547 -16.237  1.00 89.69 LIG 0.67  C 
ATOM     54  NH2 ARG D 650     -70.443   4.384 -15.558  1.00 88.97 LIG-0.23  N 
ATOM     55  NH1 ARG D 650     -69.138   3.898 -17.382  1.00 77.77 LIG-0.23  N 
ATOM     56 2HH2 ARG D 650     -71.058   3.865 -15.864  1.00 88.97 LIG 0.17  HD
ATOM     57 1HH2 ARG D 650     -70.561   4.796 -14.813  1.00 88.97 LIG 0.17  HD
ATOM     58 1HH1 ARG D 650     -68.406   3.995 -17.823  1.00 77.77 LIG 0.17  HD
ATOM     59 2HH1 ARG D 650     -69.756   3.381 -17.682  1.00 77.77 LIG 0.17  HD
ENDBRANCH 50 51
ENDBRANCH 49 50
ENDBRANCH 48 49
ENDBRANCH 45 48
ENDBRANCH 42 45
ENDBRANCH 37 41
ENDBRANCH 1 34
TORSDOF 22
ENDMDL
MODEL 2
USER: ADFR SOLUTION from run 13
USER: SCORE 18.639452 LL:  -4.458 LR: -15.947 RR:   0.000 FEB:  -9.385
USER: RMSD 3.611464
USER: SEED 597417
USER: STATUS no improvement in best in 6 clusters for 5 generations
USER: GENES 24
USER: genes 0 Translation |==|  0.37749 0.56087 0.60582
USER: genes 1 Rotation |==|  0.47216 0.49748 0.46017 0.99763
USER: genes 2 Torsion [CB]-CA--N-[C] |==|  0.47856
USER: genes 3 Torsion [N]-C--CA-[N] |==|  0.91114
USER: genes 4 Torsion [C]-CA--CB-[CG] |==|  0.58689
USER: genes 5 Torsion [CA]-CB--CG-[CD2] |==|  0.69956
USER: genes 6 Torsion [C]-CA--N-[C] |==|  0.67279
USER: genes 7 Torsion [N]-C--CA-[N] |==|  0.92564
USER: genes 8 Torsion [C]-CA--N-[C] |==|  0.68695
USER: genes 9 Torsion [N]-C--CA-[N] |==|  0.36280
USER: genes 10 Torsion [C]-CA--CB-[CG2] |==|  0.07841
USER: genes 11 Torsion [CA]-CB--CG1-[CD1] |==|  0.98492
USER: genes 12 Torsion [C]-CA--CB-[CG] |==|  0.88568
USER: genes 13 Torsion [CA]-CB--CG-[CD1] |==|  0.33196
USER: genes 14 Torsion [N]-CA--CB-[CG2] |==|  0.49839
USER: genes 15 Torsion [CA]-CB--OG1-[HG1] |==|  0.35421
USER: genes 16 Torsion [N]-CA--C-[N] |==|  0.33347
USER: genes 17 Torsion [N]-CA--C-[N] |==|  0.42500
USER: genes 18 Torsion [C]-N--CA-[C] |==|  0.81278
USER: genes 19 Torsion [N]-CA--C-[O] |==|  0.86278
USER: genes 20 Torsion [N]-CA--CB-[CG] |==|  0.44809
USER: genes 21 Torsion [CA]-CB--CG-[CD] |==|  0.72869
USER: genes 22 Torsion [CB]-CG--CD-[NE] |==|  0.65115
USER: genes 23 Torsion [CG]-CD--NE-[HE] |==|  0.05700
ROOT
ATOM      1  CA  THR D 648     -65.018  10.538  -5.898  1.00 62.87 LIG 0.20  C 
ENDROOT
BRANCH 1 2
ATOM      2  N   THR D 648     -63.746  10.292  -5.222  1.00 56.91 LIG-0.34  N 
ATOM      3  C   LEU D 647     -63.490   9.148  -4.595  1.00 59.35 LIG 0.24  C 
ATOM      4 O    LEU D 647     -64.293   8.214  -4.550  1.00 56.20 LIG-0.27  OA
ATOM      5 H    THR D 648     -63.189  10.946  -5.268  1.00 56.91 LIG 0.16  HD
BRANCH 3 6
ATOM      6  CA  LEU D 647     -62.128   9.042  -3.935  1.00 55.15 LIG 0.18  C 
BRANCH 6 7
ATOM      7  CB  LEU D 647     -62.255   9.446  -2.431  1.00 49.69 LIG 0.04  C 
BRANCH 7 8
ATOM      8  CG  LEU D 647     -61.096  10.118  -1.684  1.00 48.41 LIG-0.02  C 
ATOM      9  CD2 LEU D 647     -60.430   9.198  -0.672  1.00 46.46 LIG 0.01  C 
ATOM     10  CD1 LEU D 647     -61.589  11.377  -0.988  1.00 42.39 LIG 0.01  C 
ENDBRANCH 7 8
ENDBRANCH 6 7
BRANCH 6 11
ATOM     11  N   LEU D 647     -61.107   9.782  -4.645  1.00 57.83 LIG-0.35  N 
ATOM     12  C   LEU D 646     -60.055   9.159  -5.178  1.00 69.64 LIG 0.24  C 
ATOM     13 O    LEU D 646     -59.880   7.943  -5.064  1.00 59.31 LIG-0.27  OA
ATOM     14 H    LEU D 647     -61.241  10.630  -4.687  1.00 57.83 LIG 0.16  HD
BRANCH 12 15
ATOM     15  CA  LEU D 646     -59.036  10.012  -5.998  1.00 75.89 LIG 0.18  C 
BRANCH 15 16
ATOM     16  N   LEU D 646     -59.521  11.203  -6.626  1.00 90.15 LIG-0.35  N 
ATOM     17 H    LEU D 646     -59.758  11.825  -6.082  1.00 90.15 LIG 0.16  HD
ATOM     18  C   ILE D 645     -59.588  11.306  -7.953  1.00 94.17 LIG 0.26  C 
ATOM     19 O    ILE D 645     -59.197  10.418  -8.719  1.00104.89 LIG-0.27  OA
BRANCH 18 20
ATOM     20  CA  ILE D 645     -60.173  12.603  -8.503  1.00 87.61 LIG 0.40  C 
ATOM     21  N   ILE D 645     -59.331  13.233  -9.565  1.00 97.17 LIG 0.61  N 
BRANCH 20 22
ATOM     22  CB  ILE D 645     -61.563  12.146  -9.025  1.00 83.91 LIG 0.03  C 
ATOM     23  CG2 ILE D 645     -62.067  10.945  -8.229  1.00 71.96 LIG 0.01  C 
BRANCH 22 24
ATOM     24  CG1 ILE D 645     -62.586  13.297  -9.052  1.00 78.38 LIG 0.00  C 
ATOM     25  CD1 ILE D 645     -62.082  14.599  -8.450  1.00 60.94 LIG 0.01  C 
ENDBRANCH 22 24
ENDBRANCH 20 22
ENDBRANCH 18 20
ENDBRANCH 15 16
BRANCH 15 26
ATOM     26  CB  LEU D 646     -57.877  10.419  -5.065  1.00 77.70 LIG 0.04  C 
BRANCH 26 27
ATOM     27  CG  LEU D 646     -58.268  10.846  -3.646  1.00 75.60 LIG-0.02  C 
ATOM     28  CD1 LEU D 646     -57.640   9.949  -2.586  1.00 71.06 LIG 0.01  C 
ATOM     29  CD2 LEU D 646     -57.881  12.295  -3.425  1.00 73.48 LIG 0.01  C 
ENDBRANCH 26 27
ENDBRANCH 15 26
ENDBRANCH 12 15
ENDBRANCH 6 11
ENDBRANCH 3 6
ENDBRANCH 1 2
BRANCH 1 30
ATOM     30  CB  THR D 648     -65.114  12.011  -6.372  1.00 65.76 LIG 0.15  C 
ATOM     31  CG2 THR D 648     -66.430  12.297  -7.097  1.00 59.42 LIG 0.04  C 
BRANCH 30 32
ATOM     32 OG1  THR D 648     -65.014  12.879  -5.234  1.00 66.48 LIG-0.39  OA
ATOM     33 HG1  THR D 648     -64.414  13.451  -5.370  1.00 66.48 LIG 0.21  HD
ENDBRANCH 30 32
ENDBRANCH 1 30
BRANCH 1 34
ATOM     34  C   THR D 648     -65.211   9.528  -7.048  1.00 62.56 LIG 0.24  C 
ATOM     35 O    THR D 648     -64.374   9.454  -7.955  1.00 59.73 LIG-0.27  OA
ATOM     36  N   PRO D 649     -66.293   8.720  -6.987  1.00 65.34 LIG-0.34  N 
ATOM     37  CA  PRO D 649     -66.605   7.745  -8.042  1.00 70.60 LIG 0.18  C 
ATOM     38  CD  PRO D 649     -67.185   8.572  -5.817  1.00 66.58 LIG 0.13  C 
ATOM     39  CB  PRO D 649     -67.662   6.846  -7.389  1.00 67.49 LIG 0.04  C 
ATOM     40  CG  PRO D 649     -68.285   7.688  -6.326  1.00 65.73 LIG 0.02  C 
BRANCH 37 41
ATOM     41  C   PRO D 649     -67.172   8.363  -9.325  1.00 77.20 LIG 0.24  C 
ATOM     42  N   ARG D 650     -66.955   7.680 -10.448  1.00 83.37 LIG-0.35  N 
ATOM     43 H    ARG D 650     -66.490   6.957 -10.479  1.00 83.37 LIG 0.16  HD
ATOM     44 O    PRO D 649     -67.800   9.428  -9.281  1.00 68.92 LIG-0.27  OA
BRANCH 42 45
ATOM     45  CA  ARG D 650     -67.486   8.096 -11.746  1.00 76.40 LIG 0.16  C 
BRANCH 45 46
ATOM     46  C   ARG D 650     -69.005   7.986 -11.791  1.00 81.79 LIG 0.22  C 
ATOM     47 O    ARG D 650     -69.572   6.955 -11.429  1.00 80.18 LIG-0.29  OA
ENDBRANCH 45 46
BRANCH 45 48
ATOM     48  CB  ARG D 650     -66.861   7.263 -12.863  1.00 77.84 LIG 0.04  C 
BRANCH 48 49
ATOM     49  CG  ARG D 650     -67.652   7.299 -14.160  1.00 87.31 LIG 0.02  C 
BRANCH 49 50
ATOM     50  CD  ARG D 650     -68.565   6.092 -14.326  1.00 89.00 LIG 0.14  C 
BRANCH 50 51
ATOM     51  NE  ARG D 650     -68.353   5.373 -15.583  1.00 88.84 LIG-0.23  N 
ATOM     52 HE   ARG D 650     -67.603   5.487 -15.987  1.00 88.84 LIG 0.18  HD
ATOM     53  CZ  ARG D 650     -69.242   4.555 -16.144  1.00 89.69 LIG 0.67  C 
ATOM     54  NH2 ARG D 650     -70.413   4.325 -15.559  1.00 88.97 LIG-0.23  N 
ATOM     55  NH1 ARG D 650     -68.955   3.954 -17.293  1.00 77.77 LIG-0.23  N 
ATOM     56 2HH2 ARG D 650     -70.981   3.795 -15.928  1.00 88.97 LIG 0.17  HD
ATOM     57 1HH2 ARG D 650     -70.603   4.706 -14.812  1.00 88.97 LIG 0.17  HD
ATOM     58 1HH1 ARG D 650     -68.197   4.094 -17.673  1.00 77.77 LIG 0.17  HD
ATOM     59 2HH1 ARG D 650     -69.528   3.426 -17.656  1.00 77.77 LIG 0.17  HD
ENDBRANCH 50 51
ENDBRANCH 49 50
ENDBRANCH 48 49
ENDBRANCH 45 48
ENDBRANCH 42 45
ENDBRANCH 37 41
ENDBRANCH 1 34
TORSDOF 22
ENDMDL
MODEL 3
USER: ADFR SOLUTION from run 91
USER: SCORE 17.844908 LL:  -4.346 LR: -15.743 RR:   0.000 FEB:  -9.181
USER: RMSD 4.548138
USER: SEED 90
USER: STATUS no improvement in best in 15 clusters for 5 generations
USER: GENES 24
USER: genes 0 Translation |==|  0.37693 0.55041 0.60498
USER: genes 1 Rotation |==|  0.49517 0.49997 0.51085 0.99986
USER: genes 2 Torsion [CB]-CA--N-[C] |==|  0.35738
USER: genes 3 Torsion [N]-C--CA-[N] |==|  0.91792
USER: genes 4 Torsion [C]-CA--CB-[CG] |==|  0.38657
USER: genes 5 Torsion [CA]-CB--CG-[CD2] |==|  0.92803
USER: genes 6 Torsion [C]-CA--N-[C] |==|  0.70914
USER: genes 7 Torsion [N]-C--CA-[N] |==|  0.27278
USER: genes 8 Torsion [C]-CA--N-[C] |==|  0.77767
USER: genes 9 Torsion [N]-C--CA-[N] |==|  0.45784
USER: genes 10 Torsion [C]-CA--CB-[CG2] |==|  0.49589
USER: genes 11 Torsion [CA]-CB--CG1-[CD1] |==|  0.34677
USER: genes 12 Torsion [C]-CA--CB-[CG] |==|  0.25912
USER: genes 13 Torsion [CA]-CB--CG-[CD1] |==|  0.65891
USER: genes 14 Torsion [N]-CA--CB-[CG2] |==|  0.56384
USER: genes 15 Torsion [CA]-CB--OG1-[HG1] |==|  0.33799
USER: genes 16 Torsion [N]-CA--C-[N] |==|  0.35775
USER: genes 17 Torsion [N]-CA--C-[N] |==|  0.51135
USER: genes 18 Torsion [C]-N--CA-[C] |==|  0.72978
USER: genes 19 Torsion [N]-CA--C-[O] |==|  0.02475
USER: genes 20 Torsion [N]-CA--CB-[CG] |==|  0.42752
USER: genes 21 Torsion [CA]-CB--CG-[CD] |==|  0.75490
USER: genes 22 Torsion [CB]-CG--CD-[NE] |==|  0.63743
USER: genes 23 Torsion [CG]-CD--NE-[HE] |==|  0.07591
ROOT
ATOM      1  CA  THR D 648     -65.030  10.373  -5.919  1.00 62.87 LIG 0.20  C 
ENDROOT
BRANCH 1 2
ATOM      2  N   THR D 648     -63.719  10.329  -5.274  1.00 56.91 LIG-0.34  N 
ATOM      3  C   LEU D 647     -63.518   9.681  -4.130  1.00 59.35 LIG 0.24  C 
ATOM      4 O    LEU D 647     -64.408   9.065  -3.543  1.00 56.20 LIG-0.27  OA
ATOM      5 H    THR D 648     -63.103  10.754  -5.697  1.00 56.91 LIG 0.16  HD
BRANCH 3 6
ATOM      6  CA  LEU D 647     -62.104   9.730  -3.580  1.00 55.15 LIG 0.18  C 
BRANCH 6 7
ATOM      7  CB  LEU D 647     -62.013  10.856  -2.501  1.00 49.69 LIG 0.04  C 
BRANCH 7 8
ATOM      8  CG  LEU D 647     -61.226  10.654  -1.200  1.00 48.41 LIG-0.02  C 
ATOM      9  CD2 LEU D 647     -61.117   9.192  -0.794  1.00 46.46 LIG 0.01  C 
ATOM     10  CD1 LEU D 647     -61.869  11.454  -0.077  1.00 42.39 LIG 0.01  C 
ENDBRANCH 7 8
ENDBRANCH 6 7
BRANCH 6 11
ATOM     11  N   LEU D 647     -61.106   9.849  -4.621  1.00 57.83 LIG-0.35  N 
ATOM     12  C   LEU D 646     -60.360   8.802  -4.978  1.00 69.64 LIG 0.24  C 
ATOM     13 O    LEU D 646     -60.455   7.704  -4.424  1.00 59.31 LIG-0.27  OA
ATOM     14 H    LEU D 647     -61.044  10.631  -4.972  1.00 57.83 LIG 0.16  HD
BRANCH 12 15
ATOM     15  CA  LEU D 646     -59.360   8.985  -6.163  1.00 75.89 LIG 0.18  C 
BRANCH 15 16
ATOM     16  N   LEU D 646     -57.990   9.250  -5.841  1.00 90.15 LIG-0.35  N 
ATOM     17 H    LEU D 646     -57.472   8.565  -5.887  1.00 90.15 LIG 0.16  HD
ATOM     18  C   ILE D 645     -57.585  10.473  -5.503  1.00 94.17 LIG 0.26  C 
ATOM     19 O    ILE D 645     -58.337  11.454  -5.490  1.00104.89 LIG-0.27  OA
BRANCH 18 20
ATOM     20  CA  ILE D 645     -56.113  10.619  -5.129  1.00 87.61 LIG 0.40  C 
ATOM     21  N   ILE D 645     -55.642  12.037  -5.112  1.00 97.17 LIG 0.61  N 
BRANCH 20 22
ATOM     22  CB  ILE D 645     -56.056   9.944  -3.731  1.00 83.91 LIG 0.03  C 
ATOM     23  CG2 ILE D 645     -54.629   9.955  -3.188  1.00 71.96 LIG 0.01  C 
BRANCH 22 24
ATOM     24  CG1 ILE D 645     -57.061  10.563  -2.741  1.00 78.38 LIG 0.00  C 
ATOM     25  CD1 ILE D 645     -58.014   9.563  -2.107  1.00 60.94 LIG 0.01  C 
ENDBRANCH 22 24
ENDBRANCH 20 22
ENDBRANCH 18 20
ENDBRANCH 15 16
BRANCH 15 26
ATOM     26  CB  LEU D 646     -59.394   7.710  -7.032  1.00 77.70 LIG 0.04  C 
BRANCH 26 27
ATOM     27  CG  LEU D 646     -60.357   7.727  -8.223  1.00 75.60 LIG-0.02  C 
ATOM     28  CD1 LEU D 646     -61.358   6.579  -8.166  1.00 71.06 LIG 0.01  C 
ATOM     29  CD2 LEU D 646     -61.073   9.063  -8.280  1.00 73.48 LIG 0.01  C 
ENDBRANCH 26 27
ENDBRANCH 15 26
ENDBRANCH 12 15
ENDBRANCH 6 11
ENDBRANCH 3 6
ENDBRANCH 1 2
BRANCH 1 30
ATOM     30  CB  THR D 648     -65.431  11.833  -6.253  1.00 65.76 LIG 0.15  C 
ATOM     31  CG2 THR D 648     -66.945  11.997  -6.391  1.00 59.42 LIG 0.04  C 
BRANCH 30 32
ATOM     32 OG1  THR D 648     -64.964  12.700  -5.210  1.00 66.48 LIG-0.39  OA
ATOM     33 HG1  THR D 648     -64.452  13.281  -5.537  1.00 66.48 LIG 0.21  HD
ENDBRANCH 30 32
ENDBRANCH 1 30
BRANCH 1 34
ATOM     34  C   THR D 648     -65.043   9.452  -7.156  1.00 62.56 LIG 0.24  C 
ATOM     35 O    THR D 648     -64.134   9.524  -7.992  1.00 59.73 LIG-0.27  OA
ATOM     36  N   PRO D 649     -66.052   8.558  -7.251  1.00 65.34 LIG-0.34  N 
ATOM     37  CA  PRO D 649     -66.193   7.654  -8.402  1.00 70.60 LIG 0.18  C 
ATOM     38  CD  PRO D 649     -67.017   8.239  -6.177  1.00 66.58 LIG 0.13  C 
ATOM     39  CB  PRO D 649     -67.216   6.620  -7.914  1.00 67.49 LIG 0.04  C 
ATOM     40  CG  PRO D 649     -67.991   7.315  -6.845  1.00 65.73 LIG 0.02  C 
BRANCH 37 41
ATOM     41  C   PRO D 649     -66.710   8.331  -9.676  1.00 77.20 LIG 0.24  C 
ATOM     42  N   ARG D 650     -66.932   7.528 -10.716  1.00 83.37 LIG-0.35  N 
ATOM     43 H    ARG D 650     -66.762   6.685 -10.706  1.00 83.37 LIG 0.16  HD
ATOM     44 O    PRO D 649     -66.910   9.551  -9.698  1.00 68.92 LIG-0.27  OA
BRANCH 42 45
ATOM     45  CA  ARG D 650     -67.489   8.004 -11.982  1.00 76.40 LIG 0.16  C 
BRANCH 45 46
ATOM     46  C   ARG D 650     -68.992   7.763 -12.059  1.00 81.79 LIG 0.22  C 
ATOM     47 O    ARG D 650     -69.619   7.380 -11.071  1.00 80.18 LIG-0.29  OA
ENDBRANCH 45 46
BRANCH 45 48
ATOM     48  CB  ARG D 650     -66.784   7.327 -13.155  1.00 77.84 LIG 0.04  C 
BRANCH 48 49
ATOM     49  CG  ARG D 650     -67.639   7.244 -14.409  1.00 87.31 LIG 0.02  C 
BRANCH 49 50
ATOM     50  CD  ARG D 650     -68.498   5.987 -14.454  1.00 89.00 LIG 0.14  C 
BRANCH 50 51
ATOM     51  NE  ARG D 650     -68.399   5.263 -15.721  1.00 88.84 LIG-0.23  N 
ATOM     52 HE   ARG D 650     -67.670   5.341 -16.171  1.00 88.84 LIG 0.18  HD
ATOM     53  CZ  ARG D 650     -69.360   4.490 -16.226  1.00 89.69 LIG 0.67  C 
ATOM     54  NH2 ARG D 650     -70.502   4.315 -15.570  1.00 88.97 LIG-0.23  N 
ATOM     55  NH1 ARG D 650     -69.174   3.879 -17.390  1.00 77.77 LIG-0.23  N 
ATOM     56 2HH2 ARG D 650     -71.117   3.815 -15.903  1.00 88.97 LIG 0.17  HD
ATOM     57 1HH2 ARG D 650     -70.627   4.703 -14.813  1.00 88.97 LIG 0.17  HD
ATOM     58 1HH1 ARG D 650     -68.435   3.983 -17.817  1.00 77.77 LIG 0.17  HD
ATOM     59 2HH1 ARG D 650     -69.793   3.380 -17.717  1.00 77.77 LIG 0.17  HD
ENDBRANCH 50 51
ENDBRANCH 49 50
ENDBRANCH 48 49
ENDBRANCH 45 48
ENDBRANCH 42 45
ENDBRANCH 37 41
ENDBRANCH 1 34
TORSDOF 22
ENDMDL
MODEL 4
USER: ADFR SOLUTION from run 166
USER: SCORE 17.491260 LL:  -4.711 LR: -15.487 RR:   0.000 FEB:  -8.924
USER: RMSD 1.830412
USER: SEED 165
USER: STATUS no improvement in best in 11 clusters for 5 generations
USER: GENES 24
USER: genes 0 Translation |==|  0.38271 0.56901 0.60819
USER: genes 1 Rotation |==|  0.49296 0.46416 0.51080 0.99855
USER: genes 2 Torsion [CB]-CA--N-[C] |==|  0.39213
USER: genes 3 Torsion [N]-C--CA-[N] |==|  0.88747
USER: genes 4 Torsion [C]-CA--CB-[CG] |==|  0.47121
USER: genes 5 Torsion [CA]-CB--CG-[CD2] |==|  0.96667
USER: genes 6 Torsion [C]-CA--N-[C] |==|  0.68892
USER: genes 7 Torsion [N]-C--CA-[N] |==|  0.78610
USER: genes 8 Torsion [C]-CA--N-[C] |==|  0.74102
USER: genes 9 Torsion [N]-C--CA-[N] |==|  0.46640
USER: genes 10 Torsion [C]-CA--CB-[CG2] |==|  0.52078
USER: genes 11 Torsion [CA]-CB--CG1-[CD1] |==|  0.30199
USER: genes 12 Torsion [C]-CA--CB-[CG] |==|  0.12602
USER: genes 13 Torsion [CA]-CB--CG-[CD1] |==|  0.17225
USER: genes 14 Torsion [N]-CA--CB-[CG2] |==|  0.56459
USER: genes 15 Torsion [CA]-CB--OG1-[HG1] |==|  0.32247
USER: genes 16 Torsion [N]-CA--C-[N] |==|  0.35146
USER: genes 17 Torsion [N]-CA--C-[N] |==|  0.49126
USER: genes 18 Torsion [C]-N--CA-[C] |==|  0.71063
USER: genes 19 Torsion [N]-CA--C-[O] |==|  0.01335
USER: genes 20 Torsion [N]-CA--CB-[CG] |==|  0.93408
USER: genes 21 Torsion [CA]-CB--CG-[CD] |==|  0.38185
USER: genes 22 Torsion [CB]-CG--CD-[NE] |==|  0.44439
USER: genes 23 Torsion [CG]-CD--NE-[HE] |==|  0.10042
ROOT
ATOM      1  CA  THR D 648     -64.904  10.666  -5.841  1.00 62.87 LIG 0.20  C 
ENDROOT
BRANCH 1 2
ATOM      2  N   THR D 648     -63.699  10.628  -5.016  1.00 56.91 LIG-0.34  N 
ATOM      3  C   LEU D 647     -63.578   9.799  -3.984  1.00 59.35 LIG 0.24  C 
ATOM      4 O    LEU D 647     -64.457   8.999  -3.659  1.00 56.20 LIG-0.27  OA
ATOM      5 H    THR D 648     -63.088  11.183  -5.257  1.00 56.91 LIG 0.16  HD
BRANCH 3 6
ATOM      6  CA  LEU D 647     -62.270   9.879  -3.217  1.00 55.15 LIG 0.18  C 
BRANCH 6 7
ATOM      7  CB  LEU D 647     -62.382  10.994  -2.128  1.00 49.69 LIG 0.04  C 
BRANCH 7 8
ATOM      8  CG  LEU D 647     -61.313  11.158  -1.041  1.00 48.41 LIG-0.02  C 
ATOM      9  CD2 LEU D 647     -60.349   9.983  -0.974  1.00 46.46 LIG 0.01  C 
ATOM     10  CD1 LEU D 647     -61.978  11.355   0.313  1.00 42.39 LIG 0.01  C 
ENDBRANCH 7 8
ENDBRANCH 6 7
BRANCH 6 11
ATOM     11  N   LEU D 647     -61.125  10.038  -4.087  1.00 57.83 LIG-0.35  N 
ATOM     12  C   LEU D 646     -60.223   9.064  -4.219  1.00 69.64 LIG 0.24  C 
ATOM     13 O    LEU D 646     -60.297   8.006  -3.588  1.00 59.31 LIG-0.27  OA
ATOM     14 H    LEU D 647     -61.085  10.794  -4.495  1.00 57.83 LIG 0.16  HD
BRANCH 12 15
ATOM     15  CA  LEU D 646     -59.057   9.276  -5.236  1.00 75.89 LIG 0.18  C 
BRANCH 15 16
ATOM     16  N   LEU D 646     -59.352   9.109  -6.627  1.00 90.15 LIG-0.35  N 
ATOM     17 H    LEU D 646     -59.651   9.815  -7.018  1.00 90.15 LIG 0.16  HD
ATOM     18  C   ILE D 645     -59.166   7.939  -7.237  1.00 94.17 LIG 0.26  C 
ATOM     19 O    ILE D 645     -58.690   6.950  -6.668  1.00104.89 LIG-0.27  OA
BRANCH 18 20
ATOM     20  CA  ILE D 645     -59.567   7.870  -8.707  1.00 87.61 LIG 0.40  C 
ATOM     21  N   ILE D 645     -59.075   6.642  -9.402  1.00 97.17 LIG 0.61  N 
BRANCH 20 22
ATOM     22  CB  ILE D 645     -61.117   7.946  -8.634  1.00 83.91 LIG 0.03  C 
ATOM     23  CG2 ILE D 645     -61.732   7.706 -10.010  1.00 71.96 LIG 0.01  C 
BRANCH 22 24
ATOM     24  CG1 ILE D 645     -61.699   7.003  -7.563  1.00 78.38 LIG 0.00  C 
ATOM     25  CD1 ILE D 645     -62.257   7.710  -6.340  1.00 60.94 LIG 0.01  C 
ENDBRANCH 22 24
ENDBRANCH 20 22
ENDBRANCH 18 20
ENDBRANCH 15 16
BRANCH 15 26
ATOM     26  CB  LEU D 646     -58.498  10.701  -5.048  1.00 77.70 LIG 0.04  C 
BRANCH 26 27
ATOM     27  CG  LEU D 646     -58.258  11.149  -3.602  1.00 75.60 LIG-0.02  C 
ATOM     28  CD1 LEU D 646     -57.223  10.280  -2.899  1.00 71.06 LIG 0.01  C 
ATOM     29  CD2 LEU D 646     -57.841  12.606  -3.583  1.00 73.48 LIG 0.01  C 
ENDBRANCH 26 27
ENDBRANCH 15 26
ENDBRANCH 12 15
ENDBRANCH 6 11
ENDBRANCH 3 6
ENDBRANCH 1 2
BRANCH 1 30
ATOM     30  CB  THR D 648     -65.254  12.123  -6.238  1.00 65.76 LIG 0.15  C 
ATOM     31  CG2 THR D 648     -66.735  12.285  -6.586  1.00 59.42 LIG 0.04  C 
BRANCH 30 32
ATOM     32 OG1  THR D 648     -64.936  12.998  -5.147  1.00 66.48 LIG-0.39  OA
ATOM     33 HG1  THR D 648     -64.328  13.529  -5.381  1.00 66.48 LIG 0.21  HD
ENDBRANCH 30 32
ENDBRANCH 1 30
BRANCH 1 34
ATOM     34  C   THR D 648     -64.739   9.738  -7.063  1.00 62.56 LIG 0.24  C 
ATOM     35 O    THR D 648     -63.740   9.836  -7.784  1.00 59.73 LIG-0.27  OA
ATOM     36  N   PRO D 649     -65.700   8.810  -7.269  1.00 65.34 LIG-0.34  N 
ATOM     37  CA  PRO D 649     -65.673   7.895  -8.419  1.00 70.60 LIG 0.18  C 
ATOM     38  CD  PRO D 649     -66.776   8.466  -6.314  1.00 66.58 LIG 0.13  C 
ATOM     39  CB  PRO D 649     -66.713   6.831  -8.047  1.00 67.49 LIG 0.04  C 
ATOM     40  CG  PRO D 649     -67.633   7.506  -7.085  1.00 65.73 LIG 0.02  C 
BRANCH 37 41
ATOM     41  C   PRO D 649     -66.056   8.548  -9.753  1.00 77.20 LIG 0.24  C 
ATOM     42  N   ARG D 650     -65.981   7.766 -10.829  1.00 83.37 LIG-0.35  N 
ATOM     43 H    ARG D 650     -65.697   6.954 -10.804  1.00 83.37 LIG 0.16  HD
ATOM     44 O    PRO D 649     -66.420   9.729  -9.789  1.00 68.92 LIG-0.27  OA
BRANCH 42 45
ATOM     45  CA  ARG D 650     -66.375   8.212 -12.164  1.00 76.40 LIG 0.16  C 
BRANCH 45 46
ATOM     46  C   ARG D 650     -67.723   7.632 -12.575  1.00 81.79 LIG 0.22  C 
ATOM     47 O    ARG D 650     -68.383   6.957 -11.786  1.00 80.18 LIG-0.29  OA
ENDBRANCH 45 46
BRANCH 45 48
ATOM     48  CB  ARG D 650     -65.303   7.834 -13.184  1.00 77.84 LIG 0.04  C 
BRANCH 48 49
ATOM     49  CG  ARG D 650     -63.925   7.643 -12.572  1.00 87.31 LIG 0.02  C 
BRANCH 49 50
ATOM     50  CD  ARG D 650     -63.196   6.427 -13.127  1.00 89.00 LIG 0.14  C 
BRANCH 50 51
ATOM     51  NE  ARG D 650     -61.748   6.476 -12.925  1.00 88.84 LIG-0.23  N 
ATOM     52 HE   ARG D 650     -61.458   6.824 -12.195  1.00 88.84 LIG 0.18  HD
ATOM     53  CZ  ARG D 650     -60.849   6.019 -13.795  1.00 89.69 LIG 0.67  C 
ATOM     54  NH2 ARG D 650     -61.235   5.454 -14.935  1.00 88.97 LIG-0.23  N 
ATOM     55  NH1 ARG D 650     -59.553   6.117 -13.520  1.00 77.77 LIG-0.23  N 
ATOM     56 2HH2 ARG D 650     -60.648   5.161 -15.491  1.00 88.97 LIG 0.17  HD
ATOM     57 1HH2 ARG D 650     -62.073   5.382 -15.116  1.00 88.97 LIG 0.17  HD
ATOM     58 1HH1 ARG D 650     -59.297   6.475 -12.782  1.00 77.77 LIG 0.17  HD
ATOM     59 2HH1 ARG D 650     -58.972   5.822 -14.081  1.00 77.77 LIG 0.17  HD
ENDBRANCH 50 51
ENDBRANCH 49 50
ENDBRANCH 48 49
ENDBRANCH 45 48
ENDBRANCH 42 45
ENDBRANCH 37 41
ENDBRANCH 1 34
TORSDOF 22
ENDMDL
MODEL 5
USER: ADFR SOLUTION from run 46
USER: SCORE 18.562334 LL:  -4.889 LR: -15.411 RR:   0.000 FEB:  -8.848
USER: RMSD 3.609792
USER: SEED 45
USER: STATUS no improvement in best in 11 clusters for 5 generations
USER: GENES 24
USER: genes 0 Translation |==|  0.39565 0.56533 0.58031
USER: genes 1 Rotation |==|  0.63646 0.44006 0.55867 0.97365
USER: genes 2 Torsion [CB]-CA--N-[C] |==|  0.25278
USER: genes 3 Torsion [N]-C--CA-[N] |==|  0.96344
USER: genes 4 Torsion [C]-CA--CB-[CG] |==|  0.49014
USER: genes 5 Torsion [CA]-CB--CG-[CD2] |==|  0.84899
USER: genes 6 Torsion [C]-CA--N-[C] |==|  0.67588
USER: genes 7 Torsion [N]-C--CA-[N] |==|  0.89996
USER: genes 8 Torsion [C]-CA--N-[C] |==|  0.86497
USER: genes 9 Torsion [N]-C--CA-[N] |==|  0.83323
USER: genes 10 Torsion [C]-CA--CB-[CG2] |==|  0.10440
USER: genes 11 Torsion [CA]-CB--CG1-[CD1] |==|  0.99100
USER: genes 12 Torsion [C]-CA--CB-[CG] |==|  0.92707
USER: genes 13 Torsion [CA]-CB--CG-[CD1] |==|  0.32702
USER: genes 14 Torsion [N]-CA--CB-[CG2] |==|  0.65089
USER: genes 15 Torsion [CA]-CB--OG1-[HG1] |==|  0.30719
USER: genes 16 Torsion [N]-CA--C-[N] |==|  0.20794
USER: genes 17 Torsion [N]-CA--C-[N] |==|  0.76601
USER: genes 18 Torsion [C]-N--CA-[C] |==|  0.68126
USER: genes 19 Torsion [N]-CA--C-[O] |==|  0.83503
USER: genes 20 Torsion [N]-CA--CB-[CG] |==|  0.56061
USER: genes 21 Torsion [CA]-CB--CG-[CD] |==|  0.67907
USER: genes 22 Torsion [CB]-CG--CD-[NE] |==|  0.68878
USER: genes 23 Torsion [CG]-CD--NE-[HE] |==|  0.01337
ROOT
ATOM      1  CA  THR D 648     -64.623  10.608  -6.510  1.00 62.87 LIG 0.20  C 
ENDROOT
BRANCH 1 2
ATOM      2  N   THR D 648     -63.462  10.369  -5.656  1.00 56.91 LIG-0.34  N 
ATOM      3  C   LEU D 647     -63.552   9.690  -4.517  1.00 59.35 LIG 0.24  C 
ATOM      4 O    LEU D 647     -64.608   9.204  -4.109  1.00 56.20 LIG-0.27  OA
ATOM      5 H    THR D 648     -62.728  10.704  -5.956  1.00 56.91 LIG 0.16  HD
BRANCH 3 6
ATOM      6  CA  LEU D 647     -62.261   9.528  -3.736  1.00 55.15 LIG 0.18  C 
BRANCH 6 7
ATOM      7  CB  LEU D 647     -62.374  10.316  -2.391  1.00 49.69 LIG 0.04  C 
BRANCH 7 8
ATOM      8  CG  LEU D 647     -61.253  10.276  -1.346  1.00 48.41 LIG-0.02  C 
ATOM      9  CD2 LEU D 647     -60.873   8.862  -0.936  1.00 46.46 LIG 0.01  C 
ATOM     10  CD1 LEU D 647     -61.662  11.075  -0.118  1.00 42.39 LIG 0.01  C 
ENDBRANCH 7 8
ENDBRANCH 6 7
BRANCH 6 11
ATOM     11  N   LEU D 647     -61.093   9.883  -4.512  1.00 57.83 LIG-0.35  N 
ATOM     12  C   LEU D 646     -60.162   8.973  -4.805  1.00 69.64 LIG 0.24  C 
ATOM     13 O    LEU D 646     -60.229   7.808  -4.404  1.00 59.31 LIG-0.27  OA
ATOM     14 H    LEU D 647     -61.060  10.707  -4.757  1.00 57.83 LIG 0.16  HD
BRANCH 12 15
ATOM     15  CA  LEU D 646     -58.970   9.409  -5.715  1.00 75.89 LIG 0.18  C 
BRANCH 15 16
ATOM     16  N   LEU D 646     -59.245  10.338  -6.769  1.00 90.15 LIG-0.35  N 
ATOM     17 H    LEU D 646     -58.703  11.004  -6.810  1.00 90.15 LIG 0.16  HD
ATOM     18  C   ILE D 645     -60.269  10.154  -7.602  1.00 94.17 LIG 0.26  C 
ATOM     19 O    ILE D 645     -61.007   9.164  -7.555  1.00104.89 LIG-0.27  OA
BRANCH 18 20
ATOM     20  CA  ILE D 645     -60.492  11.239  -8.650  1.00 87.61 LIG 0.40  C 
ATOM     21  N   ILE D 645     -60.758  12.588  -8.063  1.00 97.17 LIG 0.61  N 
BRANCH 20 22
ATOM     22  CB  ILE D 645     -59.174  11.185  -9.472  1.00 83.91 LIG 0.03  C 
ATOM     23  CG2 ILE D 645     -58.696   9.744  -9.624  1.00 71.96 LIG 0.01  C 
BRANCH 22 24
ATOM     24  CG1 ILE D 645     -59.301  11.904 -10.828  1.00 78.38 LIG 0.00  C 
ATOM     25  CD1 ILE D 645     -60.689  12.447 -11.124  1.00 60.94 LIG 0.01  C 
ENDBRANCH 22 24
ENDBRANCH 20 22
ENDBRANCH 18 20
ENDBRANCH 15 16
BRANCH 15 26
ATOM     26  CB  LEU D 646     -57.877  10.031  -4.822  1.00 77.70 LIG 0.04  C 
BRANCH 26 27
ATOM     27  CG  LEU D 646     -58.351  10.654  -3.505  1.00 75.60 LIG-0.02  C 
ATOM     28  CD1 LEU D 646     -57.754   9.952  -2.292  1.00 71.06 LIG 0.01  C 
ATOM     29  CD2 LEU D 646     -58.016  12.133  -3.491  1.00 73.48 LIG 0.01  C 
ENDBRANCH 26 27
ENDBRANCH 15 26
ENDBRANCH 12 15
ENDBRANCH 6 11
ENDBRANCH 3 6
ENDBRANCH 1 2
BRANCH 1 30
ATOM     30  CB  THR D 648     -65.317  11.942  -6.136  1.00 65.76 LIG 0.15  C 
ATOM     31  CG2 THR D 648     -66.805  11.753  -5.837  1.00 59.42 LIG 0.04  C 
BRANCH 30 32
ATOM     32 OG1  THR D 648     -64.680  12.496  -4.976  1.00 66.48 LIG-0.39  OA
ATOM     33 HG1  THR D 648     -64.257  13.189  -5.193  1.00 66.48 LIG 0.21  HD
ENDBRANCH 30 32
ENDBRANCH 1 30
BRANCH 1 34
ATOM     34  C   THR D 648     -64.211  10.547  -7.995  1.00 62.56 LIG 0.24  C 
ATOM     35 O    THR D 648     -64.073  11.591  -8.644  1.00 59.73 LIG-0.27  OA
ATOM     36  N   PRO D 649     -63.972   9.325  -8.522  1.00 65.34 LIG-0.34  N 
ATOM     37  CA  PRO D 649     -63.610   9.136  -9.934  1.00 70.60 LIG 0.18  C 
ATOM     38  CD  PRO D 649     -63.863   8.068  -7.751  1.00 66.58 LIG 0.13  C 
ATOM     39  CB  PRO D 649     -63.098   7.691  -9.976  1.00 67.49 LIG 0.04  C 
ATOM     40  CG  PRO D 649     -63.745   7.016  -8.813  1.00 65.73 LIG 0.02  C 
BRANCH 37 41
ATOM     41  C   PRO D 649     -64.779   9.299 -10.912  1.00 77.20 LIG 0.24  C 
ATOM     42  N   ARG D 650     -65.539   8.220 -11.098  1.00 83.37 LIG-0.35  N 
ATOM     43 H    ARG D 650     -65.375   7.458 -10.734  1.00 83.37 LIG 0.16  HD
ATOM     44 O    PRO D 649     -64.983  10.384 -11.468  1.00 68.92 LIG-0.27  OA
BRANCH 42 45
ATOM     45  CA  ARG D 650     -66.732   8.226 -11.944  1.00 76.40 LIG 0.16  C 
BRANCH 45 46
ATOM     46  C   ARG D 650     -67.998   7.986 -11.130  1.00 81.79 LIG 0.22  C 
ATOM     47 O    ARG D 650     -68.138   6.954 -10.475  1.00 80.18 LIG-0.29  OA
ENDBRANCH 45 46
BRANCH 45 48
ATOM     48  CB  ARG D 650     -66.603   7.175 -13.044  1.00 77.84 LIG 0.04  C 
BRANCH 48 49
ATOM     49  CG  ARG D 650     -67.495   7.442 -14.245  1.00 87.31 LIG 0.02  C 
BRANCH 49 50
ATOM     50  CD  ARG D 650     -68.557   6.369 -14.441  1.00 89.00 LIG 0.14  C 
BRANCH 50 51
ATOM     51  NE  ARG D 650     -68.353   5.563 -15.645  1.00 88.84 LIG-0.23  N 
ATOM     52 HE   ARG D 650     -67.640   5.704 -16.104  1.00 88.84 LIG 0.18  HD
ATOM     53  CZ  ARG D 650     -69.196   4.627 -16.079  1.00 89.69 LIG 0.67  C 
ATOM     54  NH2 ARG D 650     -70.307   4.352 -15.404  1.00 88.97 LIG-0.23  N 
ATOM     55  NH1 ARG D 650     -68.921   3.954 -17.190  1.00 77.77 LIG-0.23  N 
ATOM     56 2HH2 ARG D 650     -70.846   3.746 -15.691  1.00 88.97 LIG 0.17  HD
ATOM     57 1HH2 ARG D 650     -70.488   4.780 -14.680  1.00 88.97 LIG 0.17  HD
ATOM     58 1HH1 ARG D 650     -68.201   4.123 -17.628  1.00 77.77 LIG 0.17  HD
ATOM     59 2HH1 ARG D 650     -69.464   3.349 -17.471  1.00 77.77 LIG 0.17  HD
ENDBRANCH 50 51
ENDBRANCH 49 50
ENDBRANCH 48 49
ENDBRANCH 45 48
ENDBRANCH 42 45
ENDBRANCH 37 41
ENDBRANCH 1 34
TORSDOF 22
ENDMDL
MODEL 6
USER: ADFR SOLUTION from run 21
USER: SCORE 17.774403 LL:  -5.093 LR: -15.370 RR:   0.000 FEB:  -8.807
USER: RMSD 3.514959
USER: SEED 20
USER: STATUS no improvement in best in 11 clusters for 5 generations
USER: GENES 24
USER: genes 0 Translation |==|  0.38412 0.55537 0.60824
USER: genes 1 Rotation |==|  0.51500 0.47063 0.53108 0.99794
USER: genes 2 Torsion [CB]-CA--N-[C] |==|  0.35667
USER: genes 3 Torsion [N]-C--CA-[N] |==|  0.90158
USER: genes 4 Torsion [C]-CA--CB-[CG] |==|  0.45015
USER: genes 5 Torsion [CA]-CB--CG-[CD2] |==|  0.98582
USER: genes 6 Torsion [C]-CA--N-[C] |==|  0.71929
USER: genes 7 Torsion [N]-C--CA-[N] |==|  0.78537
USER: genes 8 Torsion [C]-CA--N-[C] |==|  0.75763
USER: genes 9 Torsion [N]-C--CA-[N] |==|  0.32039
USER: genes 10 Torsion [C]-CA--CB-[CG2] |==|  0.09461
USER: genes 11 Torsion [CA]-CB--CG1-[CD1] |==|  0.31266
USER: genes 12 Torsion [C]-CA--CB-[CG] |==|  0.10906
USER: genes 13 Torsion [CA]-CB--CG-[CD1] |==|  0.20056
USER: genes 14 Torsion [N]-CA--CB-[CG2] |==|  0.58233
USER: genes 15 Torsion [CA]-CB--OG1-[HG1] |==|  0.30952
USER: genes 16 Torsion [N]-CA--C-[N] |==|  0.36632
USER: genes 17 Torsion [N]-CA--C-[N] |==|  0.46772
USER: genes 18 Torsion [C]-N--CA-[C] |==|  0.18315
USER: genes 19 Torsion [N]-CA--C-[O] |==|  0.09449
USER: genes 20 Torsion [N]-CA--CB-[CG] |==|  0.81980
USER: genes 21 Torsion [CA]-CB--CG-[CD] |==|  0.25783
USER: genes 22 Torsion [CB]-CG--CD-[NE] |==|  0.22355
USER: genes 23 Torsion [CG]-CD--NE-[HE] |==|  0.67060
ROOT
ATOM      1  CA  THR D 648     -64.873  10.451  -5.840  1.00 62.87 LIG 0.20  C 
ENDROOT
BRANCH 1 2
ATOM      2  N   THR D 648     -63.644  10.453  -5.051  1.00 56.91 LIG-0.34  N 
ATOM      3  C   LEU D 647     -63.517   9.731  -3.942  1.00 59.35 LIG 0.24  C 
ATOM      4 O    LEU D 647     -64.412   9.003  -3.510  1.00 56.20 LIG-0.27  OA
ATOM      5 H    THR D 648     -63.022  10.957  -5.366  1.00 56.91 LIG 0.16  HD
BRANCH 3 6
ATOM      6  CA  LEU D 647     -62.182   9.840  -3.227  1.00 55.15 LIG 0.18  C 
BRANCH 6 7
ATOM      7  CB  LEU D 647     -62.262  10.983  -2.165  1.00 49.69 LIG 0.04  C 
BRANCH 7 8
ATOM      8  CG  LEU D 647     -61.248  11.081  -1.019  1.00 48.41 LIG-0.02  C 
ATOM      9  CD2 LEU D 647     -60.282   9.906  -0.979  1.00 46.46 LIG 0.01  C 
ATOM     10  CD1 LEU D 647     -61.978  11.191   0.311  1.00 42.39 LIG 0.01  C 
ENDBRANCH 7 8
ENDBRANCH 6 7
BRANCH 6 11
ATOM     11  N   LEU D 647     -61.071   9.984  -4.143  1.00 57.83 LIG-0.35  N 
ATOM     12  C   LEU D 646     -60.294   8.942  -4.446  1.00 69.64 LIG 0.24  C 
ATOM     13 O    LEU D 646     -60.456   7.829  -3.940  1.00 59.31 LIG-0.27  OA
ATOM     14 H    LEU D 647     -60.966  10.776  -4.460  1.00 57.83 LIG 0.16  HD
BRANCH 12 15
ATOM     15  CA  LEU D 646     -59.164   9.154  -5.502  1.00 75.89 LIG 0.18  C 
BRANCH 15 16
ATOM     16  N   LEU D 646     -59.543   9.188  -6.882  1.00 90.15 LIG-0.35  N 
ATOM     17 H    LEU D 646     -59.704   9.975  -7.191  1.00 90.15 LIG 0.16  HD
ATOM     18  C   ILE D 645     -59.632   8.070  -7.603  1.00 94.17 LIG 0.26  C 
ATOM     19 O    ILE D 645     -59.351   6.954  -7.152  1.00104.89 LIG-0.27  OA
BRANCH 18 20
ATOM     20  CA  ILE D 645     -60.098   8.230  -9.046  1.00 87.61 LIG 0.40  C 
ATOM     21  N   ILE D 645     -59.059   7.854 -10.052  1.00 97.17 LIG 0.61  N 
BRANCH 20 22
ATOM     22  CB  ILE D 645     -61.350   7.311  -9.095  1.00 83.91 LIG 0.03  C 
ATOM     23  CG2 ILE D 645     -62.082   7.329  -7.756  1.00 71.96 LIG 0.01  C 
BRANCH 22 24
ATOM     24  CG1 ILE D 645     -62.281   7.653 -10.273  1.00 78.38 LIG 0.00  C 
ATOM     25  CD1 ILE D 645     -62.356   6.579 -11.346  1.00 60.94 LIG 0.01  C 
ENDBRANCH 22 24
ENDBRANCH 20 22
ENDBRANCH 18 20
ENDBRANCH 15 16
BRANCH 15 26
ATOM     26  CB  LEU D 646     -58.442  10.480  -5.186  1.00 77.70 LIG 0.04  C 
BRANCH 26 27
ATOM     27  CG  LEU D 646     -58.212  10.790  -3.704  1.00 75.60 LIG-0.02  C 
ATOM     28  CD1 LEU D 646     -57.134   9.902  -3.095  1.00 71.06 LIG 0.01  C 
ATOM     29  CD2 LEU D 646     -57.860  12.255  -3.538  1.00 73.48 LIG 0.01  C 
ENDBRANCH 26 27
ENDBRANCH 15 26
ENDBRANCH 12 15
ENDBRANCH 6 11
ENDBRANCH 3 6
ENDBRANCH 1 2
BRANCH 1 30
ATOM     30  CB  THR D 648     -65.359  11.899  -6.106  1.00 65.76 LIG 0.15  C 
ATOM     31  CG2 THR D 648     -66.880  11.979  -6.247  1.00 59.42 LIG 0.04  C 
BRANCH 30 32
ATOM     32 OG1  THR D 648     -64.950  12.741  -5.020  1.00 66.48 LIG-0.39  OA
ATOM     33 HG1  THR D 648     -64.364  13.280  -5.287  1.00 66.48 LIG 0.21  HD
ENDBRANCH 30 32
ENDBRANCH 1 30
BRANCH 1 34
ATOM     34  C   THR D 648     -64.669   9.642  -7.138  1.00 62.56 LIG 0.24  C 
ATOM     35 O    THR D 648     -63.655   9.815  -7.823  1.00 59.73 LIG-0.27  OA
ATOM     36  N   PRO D 649     -65.614   8.728  -7.452  1.00 65.34 LIG-0.34  N 
ATOM     37  CA  PRO D 649     -65.550   7.924  -8.681  1.00 70.60 LIG 0.18  C 
ATOM     38  CD  PRO D 649     -66.707   8.286  -6.560  1.00 66.58 LIG 0.13  C 
ATOM     39  CB  PRO D 649     -66.586   6.820  -8.434  1.00 67.49 LIG 0.04  C 
ATOM     40  CG  PRO D 649     -67.535   7.394  -7.437  1.00 65.73 LIG 0.02  C 
BRANCH 37 41
ATOM     41  C   PRO D 649     -65.909   8.694  -9.957  1.00 77.20 LIG 0.24  C 
ATOM     42  N   ARG D 650     -65.634   8.079 -11.107  1.00 83.37 LIG-0.35  N 
ATOM     43 H    ARG D 650     -65.241   7.315 -11.152  1.00 83.37 LIG 0.16  HD
ATOM     44 O    PRO D 649     -66.432   9.812  -9.887  1.00 68.92 LIG-0.27  OA
BRANCH 42 45
ATOM     45  CA  ARG D 650     -65.975   8.645 -12.412  1.00 76.40 LIG 0.16  C 
BRANCH 45 46
ATOM     46  C   ARG D 650     -65.186   9.918 -12.694  1.00 81.79 LIG 0.22  C 
ATOM     47 O    ARG D 650     -64.032  10.046 -12.285  1.00 80.18 LIG-0.29  OA
ENDBRANCH 45 46
BRANCH 45 48
ATOM     48  CB  ARG D 650     -67.474   8.924 -12.489  1.00 77.84 LIG 0.04  C 
BRANCH 48 49
ATOM     49  CG  ARG D 650     -68.328   7.668 -12.423  1.00 87.31 LIG 0.02  C 
BRANCH 49 50
ATOM     50  CD  ARG D 650     -68.768   7.329 -11.005  1.00 89.00 LIG 0.14  C 
BRANCH 50 51
ATOM     51  NE  ARG D 650     -69.918   8.111 -10.552  1.00 88.84 LIG-0.23  N 
ATOM     52 HE   ARG D 650     -69.811   8.620  -9.868  1.00 88.84 LIG 0.18  HD
ATOM     53  CZ  ARG D 650     -71.120   8.089 -11.127  1.00 89.69 LIG 0.67  C 
ATOM     54  NH2 ARG D 650     -71.343   7.335 -12.198  1.00 88.97 LIG-0.23  N 
ATOM     55  NH1 ARG D 650     -72.103   8.832 -10.633  1.00 77.77 LIG-0.23  N 
ATOM     56 2HH2 ARG D 650     -72.122   7.326 -12.563  1.00 88.97 LIG 0.17  HD
ATOM     57 1HH2 ARG D 650     -70.709   6.855 -12.526  1.00 88.97 LIG 0.17  HD
ATOM     58 1HH1 ARG D 650     -71.963   9.327  -9.944  1.00 77.77 LIG 0.17  HD
ATOM     59 2HH1 ARG D 650     -72.879   8.819 -11.004  1.00 77.77 LIG 0.17  HD
ENDBRANCH 50 51
ENDBRANCH 49 50
ENDBRANCH 48 49
ENDBRANCH 45 48
ENDBRANCH 42 45
ENDBRANCH 37 41
ENDBRANCH 1 34
TORSDOF 22
ENDMDL
MODEL 7
USER: ADFR SOLUTION from run 193
USER: SCORE 18.232080 LL:  -4.672 LR: -15.355 RR:   0.000 FEB:  -8.792
USER: RMSD 2.585911
USER: SEED 192
USER: STATUS no improvement in best in 12 clusters for 5 generations
USER: GENES 24
USER: genes 0 Translation |==|  0.37935 0.54094 0.61659
USER: genes 1 Rotation |==|  0.46376 0.51422 0.47575 0.99789
USER: genes 2 Torsion [CB]-CA--N-[C] |==|  0.45225
USER: genes 3 Torsion [N]-C--CA-[N] |==|  0.93704
USER: genes 4 Torsion [C]-CA--CB-[CG] |==|  0.58617
USER: genes 5 Torsion [CA]-CB--CG-[CD2] |==|  0.71364
USER: genes 6 Torsion [C]-CA--N-[C] |==|  0.67790
USER: genes 7 Torsion [N]-C--CA-[N] |==|  0.92117
USER: genes 8 Torsion [C]-CA--N-[C] |==|  0.66377
USER: genes 9 Torsion [N]-C--CA-[N] |==|  0.38589
USER: genes 10 Torsion [C]-CA--CB-[CG2] |==|  0.02986
USER: genes 11 Torsion [CA]-CB--CG1-[CD1] |==|  0.11759
USER: genes 12 Torsion [C]-CA--CB-[CG] |==|  0.90466
USER: genes 13 Torsion [CA]-CB--CG-[CD1] |==|  0.32823
USER: genes 14 Torsion [N]-CA--CB-[CG2] |==|  0.52563
USER: genes 15 Torsion [CA]-CB--OG1-[HG1] |==|  0.33617
USER: genes 16 Torsion [N]-CA--C-[N] |==|  0.38390
USER: genes 17 Torsion [N]-CA--C-[N] |==|  0.32280
USER: genes 18 Torsion [C]-N--CA-[C] |==|  0.79700
USER: genes 19 Torsion [N]-CA--C-[O] |==|  0.05294
USER: genes 20 Torsion [N]-CA--CB-[CG] |==|  0.83485
USER: genes 21 Torsion [CA]-CB--CG-[CD] |==|  0.36248
USER: genes 22 Torsion [CB]-CG--CD-[NE] |==|  0.18652
USER: genes 23 Torsion [CG]-CD--NE-[HE] |==|  0.20172
ROOT
ATOM      1  CA  THR D 648     -64.977  10.224  -5.640  1.00 62.87 LIG 0.20  C 
ENDROOT
BRANCH 1 2
ATOM      2  N   THR D 648     -63.648  10.072  -5.053  1.00 56.91 LIG-0.34  N 
ATOM      3  C   LEU D 647     -63.339   9.049  -4.262  1.00 59.35 LIG 0.24  C 
ATOM      4 O    LEU D 647     -64.139   8.155  -3.979  1.00 56.20 LIG-0.27  OA
ATOM      5 H    THR D 648     -63.095  10.696  -5.264  1.00 56.91 LIG 0.16  HD
BRANCH 3 6
ATOM      6  CA  LEU D 647     -61.920   9.030  -3.723  1.00 55.15 LIG 0.18  C 
BRANCH 6 7
ATOM      7  CB  LEU D 647     -61.935   9.470  -2.224  1.00 49.69 LIG 0.04  C 
BRANCH 7 8
ATOM      8  CG  LEU D 647     -60.749  10.214  -1.598  1.00 48.41 LIG-0.02  C 
ATOM      9  CD2 LEU D 647     -59.884   9.321  -0.723  1.00 46.46 LIG 0.01  C 
ATOM     10  CD1 LEU D 647     -61.251  11.399  -0.787  1.00 42.39 LIG 0.01  C 
ENDBRANCH 7 8
ENDBRANCH 6 7
BRANCH 6 11
ATOM     11  N   LEU D 647     -61.006   9.799  -4.539  1.00 57.83 LIG-0.35  N 
ATOM     12  C   LEU D 646     -59.994   9.209  -5.178  1.00 69.64 LIG 0.24  C 
ATOM     13 O    LEU D 646     -59.768   8.000  -5.080  1.00 59.31 LIG-0.27  OA
ATOM     14 H    LEU D 647     -61.173  10.642  -4.569  1.00 57.83 LIG 0.16  HD
BRANCH 12 15
ATOM     15  CA  LEU D 646     -59.097  10.090  -6.104  1.00 75.89 LIG 0.18  C 
BRANCH 15 16
ATOM     16  N   LEU D 646     -59.697  11.241  -6.709  1.00 90.15 LIG-0.35  N 
ATOM     17 H    LEU D 646     -60.017  11.813  -6.152  1.00 90.15 LIG 0.16  HD
ATOM     18  C   ILE D 645     -59.738  11.382  -8.033  1.00 94.17 LIG 0.26  C 
ATOM     19 O    ILE D 645     -59.229  10.570  -8.814  1.00104.89 LIG-0.27  OA
BRANCH 18 20
ATOM     20  CA  ILE D 645     -60.450  12.623  -8.560  1.00 87.61 LIG 0.40  C 
ATOM     21  N   ILE D 645     -59.748  13.269  -9.711  1.00 97.17 LIG 0.61  N 
BRANCH 20 22
ATOM     22  CB  ILE D 645     -61.851  12.068  -8.940  1.00 83.91 LIG 0.03  C 
ATOM     23  CG2 ILE D 645     -62.029  10.650  -8.404  1.00 71.96 LIG 0.01  C 
BRANCH 22 24
ATOM     24  CG1 ILE D 645     -62.991  13.004  -8.499  1.00 78.38 LIG 0.00  C 
ATOM     25  CD1 ILE D 645     -62.724  14.479  -8.748  1.00 60.94 LIG 0.01  C 
ENDBRANCH 22 24
ENDBRANCH 20 22
ENDBRANCH 18 20
ENDBRANCH 15 16
BRANCH 15 26
ATOM     26  CB  LEU D 646     -57.882  10.576  -5.287  1.00 77.70 LIG 0.04  C 
BRANCH 26 27
ATOM     27  CG  LEU D 646     -58.134  10.862  -3.803  1.00 75.60 LIG-0.02  C 
ATOM     28  CD1 LEU D 646     -57.303   9.962  -2.898  1.00 71.06 LIG 0.01  C 
ATOM     29  CD2 LEU D 646     -57.856  12.324  -3.512  1.00 73.48 LIG 0.01  C 
ENDBRANCH 26 27
ENDBRANCH 15 26
ENDBRANCH 12 15
ENDBRANCH 6 11
ENDBRANCH 3 6
ENDBRANCH 1 2
BRANCH 1 30
ATOM     30  CB  THR D 648     -65.194  11.674  -6.143  1.00 65.76 LIG 0.15  C 
ATOM     31  CG2 THR D 648     -66.645  11.929  -6.556  1.00 59.42 LIG 0.04  C 
BRANCH 30 32
ATOM     32 OG1  THR D 648     -64.841  12.593  -5.100  1.00 66.48 LIG-0.39  OA
ATOM     33 HG1  THR D 648     -64.230  13.102  -5.370  1.00 66.48 LIG 0.21  HD
ENDBRANCH 30 32
ENDBRANCH 1 30
BRANCH 1 34
ATOM     34  C   THR D 648     -65.192   9.170  -6.745  1.00 62.56 LIG 0.24  C 
ATOM     35 O    THR D 648     -64.269   8.884  -7.517  1.00 59.73 LIG-0.27  OA
ATOM     36  N   PRO D 649     -66.398   8.562  -6.794  1.00 65.34 LIG-0.34  N 
ATOM     37  CA  PRO D 649     -66.736   7.570  -7.825  1.00 70.60 LIG 0.18  C 
ATOM     38  CD  PRO D 649     -67.449   8.661  -5.759  1.00 66.58 LIG 0.13  C 
ATOM     39  CB  PRO D 649     -68.012   6.917  -7.281  1.00 67.49 LIG 0.04  C 
ATOM     40  CG  PRO D 649     -68.611   7.935  -6.369  1.00 65.73 LIG 0.02  C 
BRANCH 37 41
ATOM     41  C   PRO D 649     -67.011   8.167  -9.210  1.00 77.20 LIG 0.24  C 
ATOM     42  N   ARG D 650     -66.165   7.814 -10.177  1.00 83.37 LIG-0.35  N 
ATOM     43 H    ARG D 650     -65.476   7.316 -10.044  1.00 83.37 LIG 0.16  HD
ATOM     44 O    PRO D 649     -67.976   8.919  -9.386  1.00 68.92 LIG-0.27  OA
BRANCH 42 45
ATOM     45  CA  ARG D 650     -66.325   8.241 -11.567  1.00 76.40 LIG 0.16  C 
BRANCH 45 46
ATOM     46  C   ARG D 650     -67.475   7.510 -12.249  1.00 81.79 LIG 0.22  C 
ATOM     47 O    ARG D 650     -68.349   6.954 -11.584  1.00 80.18 LIG-0.29  OA
ENDBRANCH 45 46
BRANCH 45 48
ATOM     48  CB  ARG D 650     -65.026   8.020 -12.339  1.00 77.84 LIG 0.04  C 
BRANCH 48 49
ATOM     49  CG  ARG D 650     -63.842   8.779 -11.762  1.00 87.31 LIG 0.02  C 
BRANCH 49 50
ATOM     50  CD  ARG D 650     -62.616   7.897 -11.565  1.00 89.00 LIG 0.14  C 
BRANCH 50 51
ATOM     51  NE  ARG D 650     -62.032   7.427 -12.821  1.00 88.84 LIG-0.23  N 
ATOM     52 HE   ARG D 650     -61.606   7.998 -13.303  1.00 88.84 LIG 0.18  HD
ATOM     53  CZ  ARG D 650     -62.113   6.176 -13.270  1.00 89.69 LIG 0.67  C 
ATOM     54  NH2 ARG D 650     -62.743   5.243 -12.563  1.00 88.97 LIG-0.23  N 
ATOM     55  NH1 ARG D 650     -61.553   5.851 -14.429  1.00 77.77 LIG-0.23  N 
ATOM     56 2HH2 ARG D 650     -62.791   4.437 -12.860  1.00 88.97 LIG 0.17  HD
ATOM     57 1HH2 ARG D 650     -63.103   5.445 -11.809  1.00 88.97 LIG 0.17  HD
ATOM     58 1HH1 ARG D 650     -61.139   6.448 -14.889  1.00 77.77 LIG 0.17  HD
ATOM     59 2HH1 ARG D 650     -61.605   5.044 -14.720  1.00 77.77 LIG 0.17  HD
ENDBRANCH 50 51
ENDBRANCH 49 50
ENDBRANCH 48 49
ENDBRANCH 45 48
ENDBRANCH 42 45
ENDBRANCH 37 41
ENDBRANCH 1 34
TORSDOF 22
ENDMDL
MODEL 8
USER: ADFR SOLUTION from run 65
USER: SCORE 17.997584 LL:  -4.847 LR: -15.170 RR:   0.000 FEB:  -8.607
USER: RMSD 2.671463
USER: SEED 64
USER: STATUS no improvement in best in 13 clusters for 5 generations
USER: GENES 24
USER: genes 0 Translation |==|  0.36586 0.55825 0.62567
USER: genes 1 Rotation |==|  0.46546 0.50284 0.50032 0.99880
USER: genes 2 Torsion [CB]-CA--N-[C] |==|  0.43889
USER: genes 3 Torsion [N]-C--CA-[N] |==|  0.85167
USER: genes 4 Torsion [C]-CA--CB-[CG] |==|  0.42005
USER: genes 5 Torsion [CA]-CB--CG-[CD2] |==|  0.94148
USER: genes 6 Torsion [C]-CA--N-[C] |==|  0.69419
USER: genes 7 Torsion [N]-C--CA-[N] |==|  0.83958
USER: genes 8 Torsion [C]-CA--N-[C] |==|  0.79051
USER: genes 9 Torsion [N]-C--CA-[N] |==|  0.18649
USER: genes 10 Torsion [C]-CA--CB-[CG2] |==|  0.20884
USER: genes 11 Torsion [CA]-CB--CG1-[CD1] |==|  0.26882
USER: genes 12 Torsion [C]-CA--CB-[CG] |==|  0.04489
USER: genes 13 Torsion [CA]-CB--CG-[CD1] |==|  0.26512
USER: genes 14 Torsion [N]-CA--CB-[CG2] |==|  0.55002
USER: genes 15 Torsion [CA]-CB--OG1-[HG1] |==|  0.31291
USER: genes 16 Torsion [N]-CA--C-[N] |==|  0.39014
USER: genes 17 Torsion [N]-CA--C-[N] |==|  0.32708
USER: genes 18 Torsion [C]-N--CA-[C] |==|  0.75062
USER: genes 19 Torsion [N]-CA--C-[O] |==|  0.13559
USER: genes 20 Torsion [N]-CA--CB-[CG] |==|  0.78613
USER: genes 21 Torsion [CA]-CB--CG-[CD] |==|  0.17001
USER: genes 22 Torsion [CB]-CG--CD-[NE] |==|  0.59147
USER: genes 23 Torsion [CG]-CD--NE-[HE] |==|  0.07208
ROOT
ATOM      1  CA  THR D 648     -65.271  10.496  -5.422  1.00 62.87 LIG 0.20  C 
ENDROOT
BRANCH 1 2
ATOM      2  N   THR D 648     -63.956  10.474  -4.784  1.00 56.91 LIG-0.34  N 
ATOM      3  C   LEU D 647     -63.611   9.529  -3.915  1.00 59.35 LIG 0.24  C 
ATOM      4 O    LEU D 647     -64.360   8.605  -3.596  1.00 56.20 LIG-0.27  OA
ATOM      5 H    THR D 648     -63.437  11.118  -5.021  1.00 56.91 LIG 0.16  HD
BRANCH 3 6
ATOM      6  CA  LEU D 647     -62.213   9.642  -3.332  1.00 55.15 LIG 0.18  C 
BRANCH 6 7
ATOM      7  CB  LEU D 647     -62.181  10.817  -2.303  1.00 49.69 LIG 0.04  C 
BRANCH 7 8
ATOM      8  CG  LEU D 647     -61.215  10.809  -1.112  1.00 48.41 LIG-0.02  C 
ATOM      9  CD2 LEU D 647     -60.717   9.416  -0.761  1.00 46.46 LIG 0.01  C 
ATOM     10  CD1 LEU D 647     -61.884  11.437   0.101  1.00 42.39 LIG 0.01  C 
ENDBRANCH 7 8
ENDBRANCH 6 7
BRANCH 6 11
ATOM     11  N   LEU D 647     -61.192   9.742  -4.352  1.00 57.83 LIG-0.35  N 
ATOM     12  C   LEU D 646     -60.340   8.739  -4.570  1.00 69.64 LIG 0.24  C 
ATOM     13 O    LEU D 646     -60.354   7.704  -3.899  1.00 59.31 LIG-0.27  OA
ATOM     14 H    LEU D 647     -61.189  10.484  -4.787  1.00 57.83 LIG 0.16  HD
BRANCH 12 15
ATOM     15  CA  LEU D 646     -59.317   8.887  -5.740  1.00 75.89 LIG 0.18  C 
BRANCH 15 16
ATOM     16  N   LEU D 646     -59.839   9.109  -7.055  1.00 90.15 LIG-0.35  N 
ATOM     17 H    LEU D 646     -59.762   9.917  -7.339  1.00 90.15 LIG 0.16  HD
ATOM     18  C   ILE D 645     -60.394   8.119  -7.753  1.00 94.17 LIG 0.26  C 
ATOM     19 O    ILE D 645     -60.452   6.954  -7.343  1.00104.89 LIG-0.27  OA
BRANCH 18 20
ATOM     20  CA  ILE D 645     -60.963   8.490  -9.118  1.00 87.61 LIG 0.40  C 
ATOM     21  N   ILE D 645     -59.919   8.891 -10.110  1.00 97.17 LIG 0.61  N 
BRANCH 20 22
ATOM     22  CB  ILE D 645     -61.721   7.197  -9.527  1.00 83.91 LIG 0.03  C 
ATOM     23  CG2 ILE D 645     -63.027   7.071  -8.747  1.00 71.96 LIG 0.01  C 
BRANCH 22 24
ATOM     24  CG1 ILE D 645     -61.940   7.102 -11.049  1.00 78.38 LIG 0.00  C 
ATOM     25  CD1 ILE D 645     -60.907   6.261 -11.780  1.00 60.94 LIG 0.01  C 
ENDBRANCH 22 24
ENDBRANCH 20 22
ENDBRANCH 18 20
ENDBRANCH 15 16
BRANCH 15 26
ATOM     26  CB  LEU D 646     -58.369  10.059  -5.414  1.00 77.70 LIG 0.04  C 
BRANCH 26 27
ATOM     27  CG  LEU D 646     -58.355  10.535  -3.958  1.00 75.60 LIG-0.02  C 
ATOM     28  CD1 LEU D 646     -57.230   9.893  -3.157  1.00 71.06 LIG 0.01  C 
ATOM     29  CD2 LEU D 646     -58.251  12.047  -3.916  1.00 73.48 LIG 0.01  C 
ENDBRANCH 26 27
ENDBRANCH 15 26
ENDBRANCH 12 15
ENDBRANCH 6 11
ENDBRANCH 3 6
ENDBRANCH 1 2
BRANCH 1 30
ATOM     30  CB  THR D 648     -65.614  11.922  -5.925  1.00 65.76 LIG 0.15  C 
ATOM     31  CG2 THR D 648     -67.111  12.094  -6.189  1.00 59.42 LIG 0.04  C 
BRANCH 30 32
ATOM     32 OG1  THR D 648     -65.204  12.881  -4.941  1.00 66.48 LIG-0.39  OA
ATOM     33 HG1  THR D 648     -64.569  13.340  -5.244  1.00 66.48 LIG 0.21  HD
ENDBRANCH 30 32
ENDBRANCH 1 30
BRANCH 1 34
ATOM     34  C   THR D 648     -65.336   9.437  -6.541  1.00 62.56 LIG 0.24  C 
ATOM     35 O    THR D 648     -64.346   9.223  -7.251  1.00 59.73 LIG-0.27  OA
ATOM     36  N   PRO D 649     -66.489   8.744  -6.670  1.00 65.34 LIG-0.34  N 
ATOM     37  CA  PRO D 649     -66.685   7.736  -7.723  1.00 70.60 LIG 0.18  C 
ATOM     38  CD  PRO D 649     -67.609   8.759  -5.706  1.00 66.58 LIG 0.13  C 
ATOM     39  CB  PRO D 649     -67.943   6.988  -7.265  1.00 67.49 LIG 0.04  C 
ATOM     40  CG  PRO D 649     -68.673   7.954  -6.392  1.00 65.73 LIG 0.02  C 
BRANCH 37 41
ATOM     41  C   PRO D 649     -66.911   8.321  -9.121  1.00 77.20 LIG 0.24  C 
ATOM     42  N   ARG D 650     -65.997   8.010 -10.040  1.00 83.37 LIG-0.35  N 
ATOM     43 H    ARG D 650     -65.294   7.546  -9.868  1.00 83.37 LIG 0.16  HD
ATOM     44 O    PRO D 649     -67.901   9.025  -9.352  1.00 68.92 LIG-0.27  OA
BRANCH 42 45
ATOM     45  CA  ARG D 650     -66.101   8.430 -11.437  1.00 76.40 LIG 0.16  C 
BRANCH 45 46
ATOM     46  C   ARG D 650     -66.855   7.405 -12.276  1.00 81.79 LIG 0.22  C 
ATOM     47 O    ARG D 650     -67.935   6.953 -11.896  1.00 80.18 LIG-0.29  OA
ENDBRANCH 45 46
BRANCH 45 48
ATOM     48  CB  ARG D 650     -64.710   8.670 -12.019  1.00 77.84 LIG 0.04  C 
BRANCH 48 49
ATOM     49  CG  ARG D 650     -64.088   9.986 -11.580  1.00 87.31 LIG 0.02  C 
BRANCH 49 50
ATOM     50  CD  ARG D 650     -63.895  10.072 -10.072  1.00 89.00 LIG 0.14  C 
BRANCH 50 51
ATOM     51  NE  ARG D 650     -64.048  11.428  -9.544  1.00 88.84 LIG-0.23  N 
ATOM     52 HE   ARG D 650     -64.541  11.976  -9.987  1.00 88.84 LIG 0.18  HD
ATOM     53  CZ  ARG D 650     -63.477  11.871  -8.425  1.00 89.69 LIG 0.67  C 
ATOM     54  NH2 ARG D 650     -62.718  11.067  -7.688  1.00 88.97 LIG-0.23  N 
ATOM     55  NH1 ARG D 650     -63.673  13.125  -8.035  1.00 77.77 LIG-0.23  N 
ATOM     56 2HH2 ARG D 650     -62.353  11.361  -6.967  1.00 88.97 LIG 0.17  HD
ATOM     57 1HH2 ARG D 650     -62.592  10.252  -7.932  1.00 88.97 LIG 0.17  HD
ATOM     58 1HH1 ARG D 650     -64.168  13.649  -8.504  1.00 77.77 LIG 0.17  HD
ATOM     59 2HH1 ARG D 650     -63.305  13.413  -7.313  1.00 77.77 LIG 0.17  HD
ENDBRANCH 50 51
ENDBRANCH 49 50
ENDBRANCH 48 49
ENDBRANCH 45 48
ENDBRANCH 42 45
ENDBRANCH 37 41
ENDBRANCH 1 34
TORSDOF 22
ENDMDL
MODEL 9
USER: ADFR SOLUTION from run 141
USER: SCORE 17.582010 LL:  -4.608 LR: -15.165 RR:   0.000 FEB:  -8.602
USER: RMSD 3.760500
USER: SEED 140
USER: STATUS no improvement in best in 10 clusters for 5 generations
USER: GENES 24
USER: genes 0 Translation |==|  0.37586 0.55831 0.61890
USER: genes 1 Rotation |==|  0.47398 0.50828 0.50231 0.99925
USER: genes 2 Torsion [CB]-CA--N-[C] |==|  0.39002
USER: genes 3 Torsion [N]-C--CA-[N] |==|  0.89893
USER: genes 4 Torsion [C]-CA--CB-[CG] |==|  0.37840
USER: genes 5 Torsion [CA]-CB--CG-[CD2] |==|  0.94285
USER: genes 6 Torsion [C]-CA--N-[C] |==|  0.73036
USER: genes 7 Torsion [N]-C--CA-[N] |==|  0.26390
USER: genes 8 Torsion [C]-CA--N-[C] |==|  0.76101
USER: genes 9 Torsion [N]-C--CA-[N] |==|  0.45810
USER: genes 10 Torsion [C]-CA--CB-[CG2] |==|  0.50911
USER: genes 11 Torsion [CA]-CB--CG1-[CD1] |==|  0.35070
USER: genes 12 Torsion [C]-CA--CB-[CG] |==|  0.23674
USER: genes 13 Torsion [CA]-CB--CG-[CD1] |==|  0.42990
USER: genes 14 Torsion [N]-CA--CB-[CG2] |==|  0.55153
USER: genes 15 Torsion [CA]-CB--OG1-[HG1] |==|  0.31795
USER: genes 16 Torsion [N]-CA--C-[N] |==|  0.37739
USER: genes 17 Torsion [N]-CA--C-[N] |==|  0.40013
USER: genes 18 Torsion [C]-N--CA-[C] |==|  0.73143
USER: genes 19 Torsion [N]-CA--C-[O] |==|  0.09132
USER: genes 20 Torsion [N]-CA--CB-[CG] |==|  0.85220
USER: genes 21 Torsion [CA]-CB--CG-[CD] |==|  0.33647
USER: genes 22 Torsion [CB]-CG--CD-[NE] |==|  0.19483
USER: genes 23 Torsion [CG]-CD--NE-[HE] |==|  0.16771
ROOT
ATOM      1  CA  THR D 648     -65.053  10.497  -5.584  1.00 62.87 LIG 0.20  C 
ENDROOT
BRANCH 1 2
ATOM      2  N   THR D 648     -63.725  10.462  -4.977  1.00 56.91 LIG-0.34  N 
ATOM      3  C   LEU D 647     -63.457   9.716  -3.909  1.00 59.35 LIG 0.24  C 
ATOM      4 O    LEU D 647     -64.298   8.997  -3.367  1.00 56.20 LIG-0.27  OA
ATOM      5 H    THR D 648     -63.143  10.959  -5.370  1.00 56.91 LIG 0.16  HD
BRANCH 3 6
ATOM      6  CA  LEU D 647     -62.033   9.787  -3.389  1.00 55.15 LIG 0.18  C 
BRANCH 6 7
ATOM      7  CB  LEU D 647     -61.933  10.927  -2.326  1.00 49.69 LIG 0.04  C 
BRANCH 7 8
ATOM      8  CG  LEU D 647     -61.172  10.726  -1.009  1.00 48.41 LIG-0.02  C 
ATOM      9  CD2 LEU D 647     -60.993   9.260  -0.645  1.00 46.46 LIG 0.01  C 
ATOM     10  CD1 LEU D 647     -61.890  11.452   0.119  1.00 42.39 LIG 0.01  C 
ENDBRANCH 7 8
ENDBRANCH 6 7
BRANCH 6 11
ATOM     11  N   LEU D 647     -61.059   9.905  -4.452  1.00 57.83 LIG-0.35  N 
ATOM     12  C   LEU D 646     -60.416   8.831  -4.915  1.00 69.64 LIG 0.24  C 
ATOM     13 O    LEU D 646     -60.590   7.704  -4.444  1.00 59.31 LIG-0.27  OA
ATOM     14 H    LEU D 647     -60.939  10.705  -4.744  1.00 57.83 LIG 0.16  HD
BRANCH 12 15
ATOM     15  CA  LEU D 646     -59.438   9.023  -6.117  1.00 75.89 LIG 0.18  C 
BRANCH 15 16
ATOM     16  N   LEU D 646     -58.051   9.216  -5.820  1.00 90.15 LIG-0.35  N 
ATOM     17 H    LEU D 646     -57.579   8.497  -5.829  1.00 90.15 LIG 0.16  HD
ATOM     18  C   ILE D 645     -57.563  10.427  -5.554  1.00 94.17 LIG 0.26  C 
ATOM     19 O    ILE D 645     -58.250  11.454  -5.593  1.00104.89 LIG-0.27  OA
BRANCH 18 20
ATOM     20  CA  ILE D 645     -56.081  10.497  -5.199  1.00 87.61 LIG 0.40  C 
ATOM     21  N   ILE D 645     -55.519  11.880  -5.264  1.00 97.17 LIG 0.61  N 
BRANCH 20 22
ATOM     22  CB  ILE D 645     -56.054   9.898  -3.765  1.00 83.91 LIG 0.03  C 
ATOM     23  CG2 ILE D 645     -54.642   9.954  -3.188  1.00 71.96 LIG 0.01  C 
BRANCH 22 24
ATOM     24  CG1 ILE D 645     -57.090  10.557  -2.836  1.00 78.38 LIG 0.00  C 
ATOM     25  CD1 ILE D 645     -58.027   9.579  -2.147  1.00 60.94 LIG 0.01  C 
ENDBRANCH 22 24
ENDBRANCH 20 22
ENDBRANCH 18 20
ENDBRANCH 15 16
BRANCH 15 26
ATOM     26  CB  LEU D 646     -59.548   7.791  -7.038  1.00 77.70 LIG 0.04  C 
BRANCH 26 27
ATOM     27  CG  LEU D 646     -60.669   7.824  -8.082  1.00 75.60 LIG-0.02  C 
ATOM     28  CD1 LEU D 646     -60.354   6.945  -9.287  1.00 71.06 LIG 0.01  C 
ATOM     29  CD2 LEU D 646     -61.977   7.409  -7.440  1.00 73.48 LIG 0.01  C 
ENDBRANCH 26 27
ENDBRANCH 15 26
ENDBRANCH 12 15
ENDBRANCH 6 11
ENDBRANCH 3 6
ENDBRANCH 1 2
BRANCH 1 30
ATOM     30  CB  THR D 648     -65.416  11.937  -6.031  1.00 65.76 LIG 0.15  C 
ATOM     31  CG2 THR D 648     -66.921  12.112  -6.243  1.00 59.42 LIG 0.04  C 
BRANCH 30 32
ATOM     32 OG1  THR D 648     -64.978  12.866  -5.030  1.00 66.48 LIG-0.39  OA
ATOM     33 HG1  THR D 648     -64.372  13.353  -5.345  1.00 66.48 LIG 0.21  HD
ENDBRANCH 30 32
ENDBRANCH 1 30
BRANCH 1 34
ATOM     34  C   THR D 648     -65.137   9.476  -6.737  1.00 62.56 LIG 0.24  C 
ATOM     35 O    THR D 648     -64.193   9.354  -7.527  1.00 59.73 LIG-0.27  OA
ATOM     36  N   PRO D 649     -66.250   8.713  -6.808  1.00 65.34 LIG-0.34  N 
ATOM     37  CA  PRO D 649     -66.462   7.732  -7.882  1.00 70.60 LIG 0.18  C 
ATOM     38  CD  PRO D 649     -67.291   8.620  -5.762  1.00 66.58 LIG 0.13  C 
ATOM     39  CB  PRO D 649     -67.631   6.887  -7.362  1.00 67.49 LIG 0.04  C 
ATOM     40  CG  PRO D 649     -68.351   7.770  -6.399  1.00 65.73 LIG 0.02  C 
BRANCH 37 41
ATOM     41  C   PRO D 649     -66.833   8.350  -9.235  1.00 77.20 LIG 0.24  C 
ATOM     42  N   ARG D 650     -66.341   7.738 -10.312  1.00 83.37 LIG-0.35  N 
ATOM     43 H    ARG D 650     -65.812   7.061 -10.270  1.00 83.37 LIG 0.16  HD
ATOM     44 O    PRO D 649     -67.558   9.350  -9.288  1.00 68.92 LIG-0.27  OA
BRANCH 42 45
ATOM     45  CA  ARG D 650     -66.654   8.158 -11.677  1.00 76.40 LIG 0.16  C 
BRANCH 45 46
ATOM     46  C   ARG D 650     -67.787   7.330 -12.273  1.00 81.79 LIG 0.22  C 
ATOM     47 O    ARG D 650     -68.694   6.900 -11.560  1.00 80.18 LIG-0.29  OA
ENDBRANCH 45 46
BRANCH 45 48
ATOM     48  CB  ARG D 650     -65.410   8.062 -12.557  1.00 77.84 LIG 0.04  C 
BRANCH 48 49
ATOM     49  CG  ARG D 650     -64.209   8.801 -11.989  1.00 87.31 LIG 0.02  C 
BRANCH 49 50
ATOM     50  CD  ARG D 650     -63.011   7.890 -11.758  1.00 89.00 LIG 0.14  C 
BRANCH 50 51
ATOM     51  NE  ARG D 650     -62.388   7.426 -12.998  1.00 88.84 LIG-0.23  N 
ATOM     52 HE   ARG D 650     -62.071   8.019 -13.532  1.00 88.84 LIG 0.18  HD
ATOM     53  CZ  ARG D 650     -62.278   6.147 -13.355  1.00 89.69 LIG 0.67  C 
ATOM     54  NH2 ARG D 650     -62.734   5.182 -12.563  1.00 88.97 LIG-0.23  N 
ATOM     55  NH1 ARG D 650     -61.700   5.829 -14.507  1.00 77.77 LIG-0.23  N 
ATOM     56 2HH2 ARG D 650     -62.659   4.358 -12.801  1.00 88.97 LIG 0.17  HD
ATOM     57 1HH2 ARG D 650     -63.104   5.380 -11.813  1.00 88.97 LIG 0.17  HD
ATOM     58 1HH1 ARG D 650     -61.397   6.449 -15.021  1.00 77.77 LIG 0.17  HD
ATOM     59 2HH1 ARG D 650     -61.628   5.004 -14.739  1.00 77.77 LIG 0.17  HD
ENDBRANCH 50 51
ENDBRANCH 49 50
ENDBRANCH 48 49
ENDBRANCH 45 48
ENDBRANCH 42 45
ENDBRANCH 37 41
ENDBRANCH 1 34
TORSDOF 22
ENDMDL
MODEL 10
USER: ADFR SOLUTION from run 142
USER: SCORE 18.596782 LL:  -5.219 LR: -14.873 RR:   0.000 FEB:  -8.310
USER: RMSD 3.941777
USER: SEED 141
USER: STATUS searching
USER: GENES 24
USER: genes 0 Translation |==|  0.37750 0.54359 0.60158
USER: genes 1 Rotation |==|  0.39423 0.47748 0.44138 0.98463
USER: genes 2 Torsion [CB]-CA--N-[C] |==|  0.47778
USER: genes 3 Torsion [N]-C--CA-[N] |==|  0.93174
USER: genes 4 Torsion [C]-CA--CB-[CG] |==|  0.51524
USER: genes 5 Torsion [CA]-CB--CG-[CD2] |==|  0.85613
USER: genes 6 Torsion [C]-CA--N-[C] |==|  0.70436
USER: genes 7 Torsion [N]-C--CA-[N] |==|  0.91910
USER: genes 8 Torsion [C]-CA--N-[C] |==|  0.66305
USER: genes 9 Torsion [N]-C--CA-[N] |==|  0.39155
USER: genes 10 Torsion [C]-CA--CB-[CG2] |==|  0.03583
USER: genes 11 Torsion [CA]-CB--CG1-[CD1] |==|  0.10188
USER: genes 12 Torsion [C]-CA--CB-[CG] |==|  0.88969
USER: genes 13 Torsion [CA]-CB--CG-[CD1] |==|  0.36269
USER: genes 14 Torsion [N]-CA--CB-[CG2] |==|  0.48554
USER: genes 15 Torsion [CA]-CB--OG1-[HG1] |==|  0.29730
USER: genes 16 Torsion [N]-CA--C-[N] |==|  0.39285
USER: genes 17 Torsion [N]-CA--C-[N] |==|  0.09456
USER: genes 18 Torsion [C]-N--CA-[C] |==|  0.46522
USER: genes 19 Torsion [N]-CA--C-[O] |==|  0.01265
USER: genes 20 Torsion [N]-CA--CB-[CG] |==|  0.66229
USER: genes 21 Torsion [CA]-CB--CG-[CD] |==|  0.37638
USER: genes 22 Torsion [CB]-CG--CD-[NE] |==|  0.98426
USER: genes 23 Torsion [CG]-CD--NE-[HE] |==|  0.92616
ROOT
ATOM      1  CA  THR D 648     -65.017  10.266  -6.000  1.00 62.87 LIG 0.20  C 
ENDROOT
BRANCH 1 2
ATOM      2  N   THR D 648     -63.804  10.164  -5.193  1.00 56.91 LIG-0.34  N 
ATOM      3  C   LEU D 647     -63.677   9.267  -4.220  1.00 59.35 LIG 0.24  C 
ATOM      4 O    LEU D 647     -64.559   8.454  -3.939  1.00 56.20 LIG-0.27  OA
ATOM      5 H    THR D 648     -63.191  10.729  -5.404  1.00 56.91 LIG 0.16  HD
BRANCH 3 6
ATOM      6  CA  LEU D 647     -62.360   9.287  -3.466  1.00 55.15 LIG 0.18  C 
BRANCH 6 7
ATOM      7  CB  LEU D 647     -62.568   9.998  -2.090  1.00 49.69 LIG 0.04  C 
BRANCH 7 8
ATOM      8  CG  LEU D 647     -61.388  10.284  -1.153  1.00 48.41 LIG-0.02  C 
ATOM      9  CD2 LEU D 647     -60.538   9.053  -0.877  1.00 46.46 LIG 0.01  C 
ATOM     10  CD1 LEU D 647     -61.898  10.862   0.159  1.00 42.39 LIG 0.01  C 
ENDBRANCH 7 8
ENDBRANCH 6 7
BRANCH 6 11
ATOM     11  N   LEU D 647     -61.280   9.850  -4.247  1.00 57.83 LIG-0.35  N 
ATOM     12  C   LEU D 646     -60.327   9.070  -4.760  1.00 69.64 LIG 0.24  C 
ATOM     13 O    LEU D 646     -60.296   7.852  -4.569  1.00 59.31 LIG-0.27  OA
ATOM     14 H    LEU D 647     -61.313  10.704  -4.343  1.00 57.83 LIG 0.16  HD
BRANCH 12 15
ATOM     15  CA  LEU D 646     -59.239   9.739  -5.659  1.00 75.89 LIG 0.18  C 
BRANCH 15 16
ATOM     16  N   LEU D 646     -59.613  10.908  -6.396  1.00 90.15 LIG-0.35  N 
ATOM     17 H    LEU D 646     -59.893  11.562  -5.913  1.00 90.15 LIG 0.16  HD
ATOM     18  C   ILE D 645     -59.521  10.946  -7.725  1.00 94.17 LIG 0.26  C 
ATOM     19 O    ILE D 645     -59.070  10.011  -8.397  1.00104.89 LIG-0.27  OA
BRANCH 18 20
ATOM     20  CA  ILE D 645     -60.000  12.226  -8.401  1.00 87.61 LIG 0.40  C 
ATOM     21  N   ILE D 645     -59.145  12.648  -9.551  1.00 97.17 LIG 0.61  N 
BRANCH 20 22
ATOM     22  CB  ILE D 645     -61.448  11.857  -8.825  1.00 83.91 LIG 0.03  C 
ATOM     23  CG2 ILE D 645     -61.895  10.566  -8.144  1.00 71.96 LIG 0.01  C 
BRANCH 22 24
ATOM     24  CG1 ILE D 645     -62.439  13.013  -8.591  1.00 78.38 LIG 0.00  C 
ATOM     25  CD1 ILE D 645     -61.867  14.395  -8.860  1.00 60.94 LIG 0.01  C 
ENDBRANCH 22 24
ENDBRANCH 20 22
ENDBRANCH 18 20
ENDBRANCH 15 16
BRANCH 15 26
ATOM     26  CB  LEU D 646     -58.036  10.115  -4.771  1.00 77.70 LIG 0.04  C 
BRANCH 26 27
ATOM     27  CG  LEU D 646     -58.367  10.677  -3.384  1.00 75.60 LIG-0.02  C 
ATOM     28  CD1 LEU D 646     -57.582   9.977  -2.282  1.00 71.06 LIG 0.01  C 
ATOM     29  CD2 LEU D 646     -58.109  12.171  -3.365  1.00 73.48 LIG 0.01  C 
ENDBRANCH 26 27
ENDBRANCH 15 26
ENDBRANCH 12 15
ENDBRANCH 6 11
ENDBRANCH 3 6
ENDBRANCH 1 2
BRANCH 1 30
ATOM     30  CB  THR D 648     -64.967  11.516  -6.916  1.00 65.76 LIG 0.15  C 
ATOM     31  CG2 THR D 648     -66.164  11.582  -7.865  1.00 59.42 LIG 0.04  C 
BRANCH 30 32
ATOM     32 OG1  THR D 648     -64.956  12.696  -6.101  1.00 66.48 LIG-0.39  OA
ATOM     33 HG1  THR D 648     -64.190  13.040  -6.116  1.00 66.48 LIG 0.21  HD
ENDBRANCH 30 32
ENDBRANCH 1 30
BRANCH 1 34
ATOM     34  C   THR D 648     -65.242   8.958  -6.787  1.00 62.56 LIG 0.24  C 
ATOM     35 O    THR D 648     -64.275   8.336  -7.243  1.00 59.73 LIG-0.27  OA
ATOM     36  N   PRO D 649     -66.514   8.521  -6.910  1.00 65.34 LIG-0.34  N 
ATOM     37  CA  PRO D 649     -66.858   7.310  -7.670  1.00 70.60 LIG 0.18  C 
ATOM     38  CD  PRO D 649     -67.680   9.064  -6.181  1.00 66.58 LIG 0.13  C 
ATOM     39  CB  PRO D 649     -68.301   7.021  -7.238  1.00 67.49 LIG 0.04  C 
ATOM     40  CG  PRO D 649     -68.843   8.336  -6.788  1.00 65.73 LIG 0.02  C 
BRANCH 37 41
ATOM     41  C   PRO D 649     -66.799   7.482  -9.192  1.00 77.20 LIG 0.24  C 
ATOM     42  N   ARG D 650     -65.860   8.309  -9.650  1.00 83.37 LIG-0.35  N 
ATOM     43 H    ARG D 650     -65.337   8.760  -9.137  1.00 83.37 LIG 0.16  HD
ATOM     44 O    PRO D 649     -67.583   6.865  -9.922  1.00 68.92 LIG-0.27  OA
BRANCH 42 45
ATOM     45  CA  ARG D 650     -65.625   8.532 -11.076  1.00 76.40 LIG 0.16  C 
BRANCH 45 46
ATOM     46  C   ARG D 650     -64.720   9.735 -11.314  1.00 81.79 LIG 0.22  C 
ATOM     47 O    ARG D 650     -64.214  10.338 -10.369  1.00 80.18 LIG-0.29  OA
ENDBRANCH 45 46
BRANCH 45 48
ATOM     48  CB  ARG D 650     -66.954   8.716 -11.806  1.00 77.84 LIG 0.04  C 
BRANCH 48 49
ATOM     49  CG  ARG D 650     -67.178   7.704 -12.918  1.00 87.31 LIG 0.02  C 
BRANCH 49 50
ATOM     50  CD  ARG D 650     -68.587   7.126 -12.913  1.00 89.00 LIG 0.14  C 
BRANCH 50 51
ATOM     51  NE  ARG D 650     -69.388   7.560 -11.768  1.00 88.84 LIG-0.23  N 
ATOM     52 HE   ARG D 650     -68.971   7.779 -11.048  1.00 88.84 LIG 0.18  HD
ATOM     53  CZ  ARG D 650     -70.718   7.639 -11.763  1.00 89.69 LIG 0.67  C 
ATOM     54  NH2 ARG D 650     -71.418   7.329 -12.850  1.00 88.97 LIG-0.23  N 
ATOM     55  NH1 ARG D 650     -71.353   8.039 -10.668  1.00 77.77 LIG-0.23  N 
ATOM     56 2HH2 ARG D 650     -72.276   7.383 -12.838  1.00 88.97 LIG 0.17  HD
ATOM     57 1HH2 ARG D 650     -71.013   7.075 -13.564  1.00 88.97 LIG 0.17  HD
ATOM     58 1HH1 ARG D 650     -70.906   8.246  -9.964  1.00 77.77 LIG 0.17  HD
ATOM     59 2HH1 ARG D 650     -72.211   8.090 -10.664  1.00 77.77 LIG 0.17  HD
ENDBRANCH 50 51
ENDBRANCH 49 50
ENDBRANCH 48 49
ENDBRANCH 45 48
ENDBRANCH 42 45
ENDBRANCH 37 41
ENDBRANCH 1 34
TORSDOF 22
ENDMDL
MODEL 11
USER: ADFR SOLUTION from run 123
USER: SCORE 17.947535 LL:  -4.879 LR: -14.625 RR:   0.000 FEB:  -8.063
USER: RMSD 4.748815
USER: SEED 122
USER: STATUS no improvement in best in 13 clusters for 5 generations
USER: GENES 24
USER: genes 0 Translation |==|  0.36581 0.56198 0.60708
USER: genes 1 Rotation |==|  0.40677 0.49285 0.47107 0.99033
USER: genes 2 Torsion [CB]-CA--N-[C] |==|  0.46275
USER: genes 3 Torsion [N]-C--CA-[N] |==|  0.87114
USER: genes 4 Torsion [C]-CA--CB-[CG] |==|  0.35257
USER: genes 5 Torsion [CA]-CB--CG-[CD2] |==|  0.33924
USER: genes 6 Torsion [C]-CA--N-[C] |==|  0.74462
USER: genes 7 Torsion [N]-C--CA-[N] |==|  0.23066
USER: genes 8 Torsion [C]-CA--N-[C] |==|  0.75699
USER: genes 9 Torsion [N]-C--CA-[N] |==|  0.39706
USER: genes 10 Torsion [C]-CA--CB-[CG2] |==|  0.84722
USER: genes 11 Torsion [CA]-CB--CG1-[CD1] |==|  0.68432
USER: genes 12 Torsion [C]-CA--CB-[CG] |==|  0.26156
USER: genes 13 Torsion [CA]-CB--CG-[CD1] |==|  0.42660
USER: genes 14 Torsion [N]-CA--CB-[CG2] |==|  0.52981
USER: genes 15 Torsion [CA]-CB--OG1-[HG1] |==|  0.29474
USER: genes 16 Torsion [N]-CA--C-[N] |==|  0.38353
USER: genes 17 Torsion [N]-CA--C-[N] |==|  0.06890
USER: genes 18 Torsion [C]-N--CA-[C] |==|  0.24338
USER: genes 19 Torsion [N]-CA--C-[O] |==|  0.03633
USER: genes 20 Torsion [N]-CA--CB-[CG] |==|  0.36687
USER: genes 21 Torsion [CA]-CB--CG-[CD] |==|  0.71823
USER: genes 22 Torsion [CB]-CG--CD-[NE] |==|  0.19955
USER: genes 23 Torsion [CG]-CD--NE-[HE] |==|  0.85997
ROOT
ATOM      1  CA  THR D 648     -65.272  10.555  -5.868  1.00 62.87 LIG 0.20  C 
ENDROOT
BRANCH 1 2
ATOM      2  N   THR D 648     -63.992  10.546  -5.164  1.00 56.91 LIG-0.34  N 
ATOM      3  C   LEU D 647     -63.732   9.685  -4.185  1.00 59.35 LIG 0.24  C 
ATOM      4 O    LEU D 647     -64.538   8.831  -3.812  1.00 56.20 LIG-0.27  OA
ATOM      5 H    THR D 648     -63.433  11.139  -5.439  1.00 56.91 LIG 0.16  HD
BRANCH 3 6
ATOM      6  CA  LEU D 647     -62.360   9.800  -3.545  1.00 55.15 LIG 0.18  C 
BRANCH 6 7
ATOM      7  CB  LEU D 647     -62.376  10.969  -2.507  1.00 49.69 LIG 0.04  C 
BRANCH 7 8
ATOM      8  CG  LEU D 647     -61.923  10.756  -1.058  1.00 48.41 LIG-0.02  C 
ATOM      9  CD2 LEU D 647     -60.781  11.675  -0.652  1.00 46.46 LIG 0.01  C 
ATOM     10  CD1 LEU D 647     -61.513   9.305  -0.852  1.00 42.39 LIG 0.01  C 
ENDBRANCH 7 8
ENDBRANCH 6 7
BRANCH 6 11
ATOM     11  N   LEU D 647     -61.299   9.913  -4.521  1.00 57.83 LIG-0.35  N 
ATOM     12  C   LEU D 646     -60.665   8.829  -4.973  1.00 69.64 LIG 0.24  C 
ATOM     13 O    LEU D 646     -60.922   7.695  -4.562  1.00 59.31 LIG-0.27  OA
ATOM     14 H    LEU D 647     -61.124  10.717  -4.771  1.00 57.83 LIG 0.16  HD
BRANCH 12 15
ATOM     15  CA  LEU D 646     -59.586   9.022  -6.085  1.00 75.89 LIG 0.18  C 
BRANCH 15 16
ATOM     16  N   LEU D 646     -58.269   9.403  -5.673  1.00 90.15 LIG-0.35  N 
ATOM     17 H    LEU D 646     -57.731   8.746  -5.540  1.00 90.15 LIG 0.16  HD
ATOM     18  C   ILE D 645     -57.938  10.684  -5.518  1.00 94.17 LIG 0.26  C 
ATOM     19 O    ILE D 645     -58.714  11.616  -5.761  1.00104.89 LIG-0.27  OA
BRANCH 18 20
ATOM     20  CA  ILE D 645     -56.522  10.963  -5.023  1.00 87.61 LIG 0.40  C 
ATOM     21  N   ILE D 645     -55.901  12.172  -5.645  1.00 97.17 LIG 0.61  N 
BRANCH 20 22
ATOM     22  CB  ILE D 645     -56.728  11.107  -3.490  1.00 83.91 LIG 0.03  C 
ATOM     23  CG2 ILE D 645     -57.781  12.170  -3.188  1.00 71.96 LIG 0.01  C 
BRANCH 22 24
ATOM     24  CG1 ILE D 645     -57.047   9.761  -2.812  1.00 78.38 LIG 0.00  C 
ATOM     25  CD1 ILE D 645     -58.447   9.669  -2.229  1.00 60.94 LIG 0.01  C 
ENDBRANCH 22 24
ENDBRANCH 20 22
ENDBRANCH 18 20
ENDBRANCH 15 16
BRANCH 15 26
ATOM     26  CB  LEU D 646     -59.461   7.704  -6.877  1.00 77.70 LIG 0.04  C 
BRANCH 26 27
ATOM     27  CG  LEU D 646     -60.306   7.596  -8.150  1.00 75.60 LIG-0.02  C 
ATOM     28  CD1 LEU D 646     -59.691   6.640  -9.165  1.00 71.06 LIG 0.01  C 
ATOM     29  CD2 LEU D 646     -61.716   7.167  -7.792  1.00 73.48 LIG 0.01  C 
ENDBRANCH 26 27
ENDBRANCH 15 26
ENDBRANCH 12 15
ENDBRANCH 6 11
ENDBRANCH 3 6
ENDBRANCH 1 2
BRANCH 1 30
ATOM     30  CB  THR D 648     -65.428  11.848  -6.709  1.00 65.76 LIG 0.15  C 
ATOM     31  CG2 THR D 648     -66.851  12.017  -7.246  1.00 59.42 LIG 0.04  C 
BRANCH 30 32
ATOM     32 OG1  THR D 648     -65.104  12.983  -5.894  1.00 66.48 LIG-0.39  OA
ATOM     33 HG1  THR D 648     -64.354  13.286  -6.120  1.00 66.48 LIG 0.21  HD
ENDBRANCH 30 32
ENDBRANCH 1 30
BRANCH 1 34
ATOM     34  C   THR D 648     -65.423   9.273  -6.712  1.00 62.56 LIG 0.24  C 
ATOM     35 O    THR D 648     -64.451   8.818  -7.327  1.00 59.73 LIG-0.27  OA
ATOM     36  N   PRO D 649     -66.631   8.667  -6.707  1.00 65.34 LIG-0.34  N 
ATOM     37  CA  PRO D 649     -66.908   7.462  -7.502  1.00 70.60 LIG 0.18  C 
ATOM     38  CD  PRO D 649     -67.751   9.001  -5.802  1.00 66.58 LIG 0.13  C 
ATOM     39  CB  PRO D 649     -68.229   6.950  -6.916  1.00 67.49 LIG 0.04  C 
ATOM     40  CG  PRO D 649     -68.877   8.150  -6.310  1.00 65.73 LIG 0.02  C 
BRANCH 37 41
ATOM     41  C   PRO D 649     -67.074   7.721  -9.003  1.00 77.20 LIG 0.24  C 
ATOM     42  N   ARG D 650     -66.473   8.811  -9.478  1.00 83.37 LIG-0.35  N 
ATOM     43 H    ARG D 650     -66.048   9.371  -8.981  1.00 83.37 LIG 0.16  HD
ATOM     44 O    PRO D 649     -67.724   6.938  -9.705  1.00 68.92 LIG-0.27  OA
BRANCH 42 45
ATOM     45  CA  ARG D 650     -66.476   9.166 -10.897  1.00 76.40 LIG 0.16  C 
BRANCH 45 46
ATOM     46  C   ARG D 650     -67.702   9.993 -11.265  1.00 81.79 LIG 0.22  C 
ATOM     47 O    ARG D 650     -68.413  10.488 -10.391  1.00 80.18 LIG-0.29  OA
ENDBRANCH 45 46
BRANCH 45 48
ATOM     48  CB  ARG D 650     -66.411   7.905 -11.755  1.00 77.84 LIG 0.04  C 
BRANCH 48 49
ATOM     49  CG  ARG D 650     -67.436   7.883 -12.877  1.00 87.31 LIG 0.02  C 
BRANCH 49 50
ATOM     50  CD  ARG D 650     -68.642   7.009 -12.557  1.00 89.00 LIG 0.14  C 
BRANCH 50 51
ATOM     51  NE  ARG D 650     -69.524   7.588 -11.544  1.00 88.84 LIG-0.23  N 
ATOM     52 HE   ARG D 650     -69.167   7.862 -10.811  1.00 88.84 LIG 0.18  HD
ATOM     53  CZ  ARG D 650     -70.843   7.719 -11.677  1.00 89.69 LIG 0.67  C 
ATOM     54  NH2 ARG D 650     -71.453   7.329 -12.792  1.00 88.97 LIG-0.23  N 
ATOM     55  NH1 ARG D 650     -71.558   8.252 -10.693  1.00 77.77 LIG-0.23  N 
ATOM     56 2HH2 ARG D 650     -72.305   7.417 -12.870  1.00 88.97 LIG 0.17  HD
ATOM     57 1HH2 ARG D 650     -70.995   6.988 -13.435  1.00 88.97 LIG 0.17  HD
ATOM     58 1HH1 ARG D 650     -71.169   8.512  -9.972  1.00 77.77 LIG 0.17  HD
ATOM     59 2HH1 ARG D 650     -72.409   8.337 -10.778  1.00 77.77 LIG 0.17  HD
ENDBRANCH 50 51
ENDBRANCH 49 50
ENDBRANCH 48 49
ENDBRANCH 45 48
ENDBRANCH 42 45
ENDBRANCH 37 41
ENDBRANCH 1 34
TORSDOF 22
ENDMDL
