MODEL 1
USER: ADFR SOLUTION from run 50
USER: SCORE 27.802084 LL:  -3.231 LR: -25.399 RR:   0.000 FEB: -14.959
USER: RMSD 2.872889
USER: SEED 49
USER: STATUS no improvement in best in 1 clusters for 5 generations
USER: GENES 37
USER: genes 0 Translation |==|  0.47753 0.58484 0.49983
USER: genes 1 Rotation |==|  0.48589 0.51892 0.52365 0.99888
USER: genes 2 Torsion [N]-CA--C-[N] |==|  0.43398
USER: genes 3 Torsion [C]-N--CA-[C] |==|  0.83292
USER: genes 4 Torsion [N]-CA--CB-[CG] |==|  0.61443
USER: genes 5 Torsion [CA]-CB--CG-[CD] |==|  0.48947
USER: genes 6 Torsion [CB]-CG--CD-[CE] |==|  0.76503
USER: genes 7 Torsion [CG]-CD--CE-[NZ] |==|  0.89094
USER: genes 8 Torsion [CD]-CE--NZ-[HZ3] |==|  0.01383
USER: genes 9 Torsion [N]-CA--C-[N] |==|  0.40805
USER: genes 10 Torsion [C]-N--CA-[C] |==|  0.82528
USER: genes 11 Torsion [N]-CA--C-[N] |==|  0.37543
USER: genes 12 Torsion [C]-N--CA-[C] |==|  0.52583
USER: genes 13 Torsion [N]-CA--C-[O] |==|  0.85834
USER: genes 14 Torsion [N]-CA--CB-[OG] |==|  0.08134
USER: genes 15 Torsion [CA]-CB--OG-[HG] |==|  0.75041
USER: genes 16 Torsion [N]-CA--CB-[CG] |==|  0.21084
USER: genes 17 Torsion [CA]-CB--CG-[CD] |==|  0.48821
USER: genes 18 Torsion [CB]-CG--CD-[NE] |==|  0.35472
USER: genes 19 Torsion [CG]-CD--NE-[CZ] |==|  0.15968
USER: genes 20 Torsion [C]-CA--CB-[CG] |==|  0.45064
USER: genes 21 Torsion [CA]-CB--CG-[CD] |==|  0.63218
USER: genes 22 Torsion [CB]-CG--CD-[NE] |==|  0.74943
USER: genes 23 Torsion [CG]-CD--NE-[CZ] |==|  0.59071
USER: genes 24 Torsion [C]-CA--N-[C] |==|  0.55404
USER: genes 25 Torsion [N]-C--CA-[N] |==|  0.46526
USER: genes 26 Torsion [C]-CA--CB-[CG] |==|  0.29878
USER: genes 27 Torsion [CA]-CB--CG-[CD] |==|  0.65846
USER: genes 28 Torsion [CB]-CG--CD-[NE2] |==|  0.04096
USER: genes 29 Torsion [C]-CA--N-[C] |==|  0.49904
USER: genes 30 Torsion [N]-C--CA-[N] |==|  0.97965
USER: genes 31 Torsion [C]-CA--CB-[CG2] |==|  0.23837
USER: genes 32 Torsion [CA]-CB--OG1-[HG1] |==|  0.62645
USER: genes 33 Torsion [C]-CA--N-[C] |==|  0.73367
USER: genes 34 Torsion [N]-C--CA-[N] |==|  0.25861
USER: genes 35 Torsion [C]-CA--CB-[OG1] |==|  0.86764
USER: genes 36 Torsion [CA]-CB--OG1-[HG1] |==|  0.38309
ROOT
ATOM      1  CA  ARG F 167      -1.767  20.305  38.661  1.00 38.85 LIG 0.18  C 
ENDROOT
BRANCH 1 2
ATOM      2  C   ARG F 167      -2.220  18.979  39.246  1.00 41.97 LIG 0.24  C 
ATOM      3  N   LYS F 168      -3.310  19.027  40.014  1.00 42.42 LIG-0.35  N 
ATOM      4 H    LYS F 168      -3.708  19.750  40.257  1.00 42.42 LIG 0.16  HD
ATOM      5 O    ARG F 167      -1.595  17.940  39.020  1.00 34.60 LIG-0.27  OA
BRANCH 3 6
ATOM      6  CA  LYS F 168      -3.911  17.795  40.505  1.00 39.35 LIG 0.18  C 
BRANCH 6 7
ATOM      7  CB  LYS F 168      -5.112  18.094  41.405  1.00 43.51 LIG 0.04  C 
BRANCH 7 8
ATOM      8  CG  LYS F 168      -5.202  17.219  42.640  1.00 39.69 LIG 0.00  C 
BRANCH 8 9
ATOM      9  CD  LYS F 168      -6.362  17.621  43.548  1.00 48.24 LIG 0.03  C 
BRANCH 9 10
ATOM     10  CE  LYS F 168      -5.977  18.760  44.495  1.00 54.37 LIG 0.23  C 
BRANCH 10 11
ATOM     11  NZ  LYS F 168      -4.587  18.644  45.043  1.00 52.23 LIG-0.08  N 
ATOM     12 HZ3  LYS F 168      -4.175  17.952  44.664  1.00 52.23 LIG 0.27  HD
ATOM     13 HZ1  LYS F 168      -4.135  19.390  44.867  1.00 52.23 LIG 0.27  HD
ATOM     14 HZ2  LYS F 168      -4.624  18.521  45.924  1.00 52.23 LIG 0.27  HD
ENDBRANCH 10 11
ENDBRANCH 9 10
ENDBRANCH 8 9
ENDBRANCH 7 8
ENDBRANCH 6 7
BRANCH 6 15
ATOM     15  C   LYS F 168      -4.338  16.926  39.327  1.00 30.99 LIG 0.24  C 
ATOM     16 O    LYS F 168      -4.703  17.433  38.260  1.00 32.09 LIG-0.27  OA
ATOM     17  N   ARG F 169      -4.254  15.611  39.509  1.00 23.74 LIG-0.35  N 
ATOM     18 H    ARG F 169      -3.965  15.234  40.226  1.00 23.74 LIG 0.16  HD
BRANCH 17 19
ATOM     19  CA  ARG F 169      -4.667  14.698  38.453  1.00 28.77 LIG 0.18  C 
BRANCH 19 20
ATOM     20  C   ARG F 169      -6.155  14.869  38.168  1.00 37.10 LIG 0.24  C 
ATOM     21  N   SER F 170      -6.485  14.920  36.879  1.00 32.48 LIG-0.34  N 
ATOM     22 H    SER F 170      -5.936  14.735  36.243  1.00 32.48 LIG 0.16  HD
ATOM     23 O    ARG F 169      -6.980  14.986  39.085  1.00 33.53 LIG-0.27  OA
BRANCH 21 24
ATOM     24  CA  SER F 170      -7.821  15.299  36.417  1.00 32.11 LIG 0.19  C 
BRANCH 24 25
ATOM     25  C   SER F 170      -8.019  15.064  34.914  1.00 36.47 LIG 0.22  C 
ATOM     26 O    SER F 170      -7.211  15.498  34.092  1.00 35.83 LIG-0.29  OA
ENDBRANCH 24 25
BRANCH 24 27
ATOM     27  CB  SER F 170      -8.088  16.768  36.760  1.00 36.26 LIG 0.20  C 
BRANCH 27 28
ATOM     28 OG   SER F 170      -6.874  17.510  36.781  1.00 19.66 LIG-0.40  OA
ATOM     29 HG   SER F 170      -6.546  17.490  37.554  1.00 19.66 LIG 0.21  HD
ENDBRANCH 27 28
ENDBRANCH 24 27
ENDBRANCH 21 24
ENDBRANCH 19 20
BRANCH 19 30
ATOM     30  CB  ARG F 169      -4.333  13.248  38.826  1.00 32.99 LIG 0.04  C 
BRANCH 30 31
ATOM     31  CG  ARG F 169      -5.234  12.574  39.849  1.00 34.51 LIG 0.02  C 
BRANCH 31 32
ATOM     32  CD  ARG F 169      -4.806  11.103  40.009  1.00 39.71 LIG 0.14  C 
BRANCH 32 33
ATOM     33  NE  ARG F 169      -4.586  10.785  41.419  1.00 37.23 LIG-0.23  N 
ATOM     34  CZ  ARG F 169      -5.486  10.916  42.392  1.00 33.71 LIG 0.67  C 
ATOM     35  NH2 ARG F 169      -5.140  10.581  43.629  1.00 35.73 LIG-0.23  N 
ATOM     36  NH1 ARG F 169      -6.717  11.377  42.141  1.00 22.18 LIG-0.23  N 
ATOM     37 2HH2 ARG F 169      -5.708  10.658  44.270  1.00 35.73 LIG 0.17  HD
ATOM     38 1HH2 ARG F 169      -4.349  10.285  43.789  1.00 35.73 LIG 0.17  HD
ATOM     39 1HH1 ARG F 169      -6.939  11.593  41.339  1.00 22.18 LIG 0.17  HD
ATOM     40 2HH1 ARG F 169      -7.285  11.455  42.782  1.00 22.18 LIG 0.17  HD
ATOM     41 HE   ARG F 169      -3.810  10.487  41.639  1.00 37.23 LIG 0.18  HD
ENDBRANCH 32 33
ENDBRANCH 31 32
ENDBRANCH 30 31
ENDBRANCH 19 30
ENDBRANCH 17 19
ENDBRANCH 6 15
ENDBRANCH 3 6
ENDBRANCH 1 2
BRANCH 1 42
ATOM     42  CB  ARG F 167      -2.598  20.640  37.416  1.00 34.27 LIG 0.04  C 
BRANCH 42 43
ATOM     43  CG  ARG F 167      -2.523  22.101  37.020  1.00 36.76 LIG 0.02  C 
BRANCH 43 44
ATOM     44  CD  ARG F 167      -3.898  22.647  36.753  1.00 47.53 LIG 0.14  C 
BRANCH 44 45
ATOM     45  NE  ARG F 167      -4.266  22.482  35.354  1.00 46.15 LIG-0.23  N 
ATOM     46 HE   ARG F 167      -3.967  21.795  34.932  1.00 46.15 LIG 0.18  HD
ATOM     47  CZ  ARG F 167      -5.036  23.338  34.697  1.00 54.25 LIG 0.67  C 
ATOM     48  NH2 ARG F 167      -5.338  23.127  33.419  1.00 44.38 LIG-0.23  N 
ATOM     49  NH1 ARG F 167      -5.501  24.412  35.329  1.00 45.80 LIG-0.23  N 
ATOM     50 1HH2 ARG F 167      -5.033  22.432  33.015  1.00 44.38 LIG 0.17  HD
ATOM     51 2HH2 ARG F 167      -5.839  23.685  32.998  1.00 44.38 LIG 0.17  HD
ATOM     52 2HH1 ARG F 167      -6.001  24.973  34.913  1.00 45.80 LIG 0.17  HD
ATOM     53 1HH1 ARG F 167      -5.300  24.545  36.155  1.00 45.80 LIG 0.17  HD
ENDBRANCH 44 45
ENDBRANCH 43 44
ENDBRANCH 42 43
ENDBRANCH 1 42
BRANCH 1 54
ATOM     54  N   ARG F 167      -0.347  20.217  38.356  1.00 32.00 LIG-0.35  N 
ATOM     55 H    ARG F 167      -0.054  19.411  38.292  1.00 32.00 LIG 0.16  HD
ATOM     56  C   GLN F 166       0.422  21.292  38.193  1.00 42.00 LIG 0.24  C 
ATOM     57 O    GLN F 166      -0.010  22.449  38.198  1.00 37.97 LIG-0.27  OA
BRANCH 56 58
ATOM     58  CA  GLN F 166       1.899  21.007  37.983  1.00 41.36 LIG 0.18  C 
BRANCH 58 59
ATOM     59  CB  GLN F 166       2.499  20.471  39.287  1.00 34.92 LIG 0.04  C 
BRANCH 59 60
ATOM     60  CG  GLN F 166       2.831  19.000  39.280  1.00 32.73 LIG 0.10  C 
BRANCH 60 61
ATOM     61  CD  GLN F 166       2.122  18.257  40.396  1.00 43.28 LIG 0.21  C 
ATOM     62  NE2 GLN F 166       1.122  18.896  40.995  1.00 36.91 LIG-0.37  N 
ATOM     63 21HE GLN F 166       0.906  19.689  40.742  1.00 36.91 LIG 0.16  HD
ATOM     64 22HE GLN F 166       0.692  18.517  41.636  1.00 36.91 LIG 0.16  HD
ATOM     65 OE1  GLN F 166       2.474  17.118  40.720  1.00 42.55 LIG-0.27  OA
ENDBRANCH 60 61
ENDBRANCH 59 60
ENDBRANCH 58 59
BRANCH 58 66
ATOM     66  N   GLN F 166       2.556  22.224  37.529  1.00 35.11 LIG-0.35  N 
ATOM     67  C   THR F 165       3.859  22.273  37.270  1.00 35.16 LIG 0.24  C 
ATOM     68 O    THR F 165       4.609  21.309  37.468  1.00 30.91 LIG-0.27  OA
ATOM     69 H    GLN F 166       2.028  22.899  37.446  1.00 35.11 LIG 0.16  HD
BRANCH 67 70
ATOM     70  CA  THR F 165       4.430  23.569  36.711  1.00 44.00 LIG 0.20  C 
BRANCH 70 71
ATOM     71  CB  THR F 165       5.428  24.170  37.707  1.00 46.85 LIG 0.15  C 
ATOM     72  CG2 THR F 165       6.818  23.566  37.500  1.00 37.95 LIG 0.04  C 
BRANCH 71 73
ATOM     73 OG1  THR F 165       5.476  25.594  37.539  1.00 45.14 LIG-0.39  OA
ATOM     74 HG1  THR F 165       6.277  25.849  37.532  1.00 45.14 LIG 0.21  HD
ENDBRANCH 71 73
ENDBRANCH 70 71
BRANCH 70 75
ATOM     75  N   THR F 165       3.390  24.537  36.383  1.00 38.01 LIG-0.34  N 
ATOM     76 H    THR F 165       3.126  25.010  37.050  1.00 38.01 LIG 0.16  HD
ATOM     77  C   THR F 164       2.902  24.663  35.148  1.00 57.69 LIG 0.26  C 
ATOM     78 O    THR F 164       3.294  23.974  34.200  1.00 49.67 LIG-0.27  OA
BRANCH 77 79
ATOM     79  CA  THR F 164       1.808  25.718  34.956  1.00 56.73 LIG 0.43  C 
ATOM     80  N   THR F 164       2.384  26.994  34.539  1.00 65.32 LIG 0.62  N 
BRANCH 79 81
ATOM     81  CB  THR F 164       0.758  25.205  33.934  1.00 58.05 LIG 0.16  C 
ATOM     82  CG2 THR F 164      -0.173  26.340  33.514  1.00 51.52 LIG 0.04  C 
BRANCH 81 83
ATOM     83 OG1  THR F 164       1.417  24.678  32.774  1.00 58.15 LIG-0.39  OA
ATOM     84 HG1  THR F 164       1.039  23.967  32.535  1.00 58.15 LIG 0.21  HD
ENDBRANCH 81 83
ENDBRANCH 79 81
ENDBRANCH 77 79
ENDBRANCH 70 75
ENDBRANCH 67 70
ENDBRANCH 58 66
ENDBRANCH 56 58
ENDBRANCH 1 54
TORSDOF 35
ENDMDL
MODEL 2
USER: ADFR SOLUTION from run 14
USER: SCORE 27.577230 LL:  -3.871 LR: -24.526 RR:   0.000 FEB: -14.086
USER: RMSD 3.252805
USER: SEED 478482
USER: STATUS searching
USER: GENES 37
USER: genes 0 Translation |==|  0.46477 0.57239 0.50821
USER: genes 1 Rotation |==|  0.48029 0.50791 0.52243 0.99904
USER: genes 2 Torsion [N]-CA--C-[N] |==|  0.39514
USER: genes 3 Torsion [C]-N--CA-[C] |==|  0.83214
USER: genes 4 Torsion [N]-CA--CB-[CG] |==|  0.20837
USER: genes 5 Torsion [CA]-CB--CG-[CD] |==|  0.65027
USER: genes 6 Torsion [CB]-CG--CD-[CE] |==|  0.17196
USER: genes 7 Torsion [CG]-CD--CE-[NZ] |==|  0.74140
USER: genes 8 Torsion [CD]-CE--NZ-[HZ3] |==|  0.36480
USER: genes 9 Torsion [N]-CA--C-[N] |==|  0.39741
USER: genes 10 Torsion [C]-N--CA-[C] |==|  0.80656
USER: genes 11 Torsion [N]-CA--C-[N] |==|  0.88409
USER: genes 12 Torsion [C]-N--CA-[C] |==|  0.64475
USER: genes 13 Torsion [N]-CA--C-[O] |==|  0.88846
USER: genes 14 Torsion [N]-CA--CB-[OG] |==|  0.19036
USER: genes 15 Torsion [CA]-CB--OG-[HG] |==|  0.90169
USER: genes 16 Torsion [N]-CA--CB-[CG] |==|  0.11231
USER: genes 17 Torsion [CA]-CB--CG-[CD] |==|  0.27968
USER: genes 18 Torsion [CB]-CG--CD-[NE] |==|  0.53680
USER: genes 19 Torsion [CG]-CD--NE-[CZ] |==|  0.81516
USER: genes 20 Torsion [C]-CA--CB-[CG] |==|  0.49918
USER: genes 21 Torsion [CA]-CB--CG-[CD] |==|  0.64804
USER: genes 22 Torsion [CB]-CG--CD-[NE] |==|  0.73449
USER: genes 23 Torsion [CG]-CD--NE-[CZ] |==|  0.55718
USER: genes 24 Torsion [C]-CA--N-[C] |==|  0.59878
USER: genes 25 Torsion [N]-C--CA-[N] |==|  0.42612
USER: genes 26 Torsion [C]-CA--CB-[CG] |==|  0.33641
USER: genes 27 Torsion [CA]-CB--CG-[CD] |==|  0.55481
USER: genes 28 Torsion [CB]-CG--CD-[NE2] |==|  0.56659
USER: genes 29 Torsion [C]-CA--N-[C] |==|  0.53889
USER: genes 30 Torsion [N]-C--CA-[N] |==|  0.93001
USER: genes 31 Torsion [C]-CA--CB-[CG2] |==|  0.31137
USER: genes 32 Torsion [CA]-CB--OG1-[HG1] |==|  0.49584
USER: genes 33 Torsion [C]-CA--N-[C] |==|  0.68675
USER: genes 34 Torsion [N]-C--CA-[N] |==|  0.29060
USER: genes 35 Torsion [C]-CA--CB-[OG1] |==|  0.90156
USER: genes 36 Torsion [CA]-CB--OG1-[HG1] |==|  0.18503
ROOT
ATOM      1  CA  ARG F 167      -2.083  19.960  38.824  1.00 38.85 LIG 0.18  C 
ENDROOT
BRANCH 1 2
ATOM      2  C   ARG F 167      -2.567  18.647  39.415  1.00 41.97 LIG 0.24  C 
ATOM      3  N   LYS F 168      -3.506  18.747  40.357  1.00 42.42 LIG-0.35  N 
ATOM      4 H    LYS F 168      -3.784  19.486  40.697  1.00 42.42 LIG 0.16  HD
ATOM      5 O    ARG F 167      -2.095  17.570  39.039  1.00 34.60 LIG-0.27  OA
BRANCH 3 6
ATOM      6  CA  LYS F 168      -4.140  17.546  40.885  1.00 39.35 LIG 0.18  C 
BRANCH 6 7
ATOM      7  CB  LYS F 168      -5.136  17.898  41.992  1.00 43.51 LIG 0.04  C 
BRANCH 7 8
ATOM      8  CG  LYS F 168      -6.436  18.502  41.497  1.00 39.69 LIG 0.00  C 
BRANCH 8 9
ATOM      9  CD  LYS F 168      -6.743  19.838  42.169  1.00 48.24 LIG 0.03  C 
BRANCH 9 10
ATOM     10  CE  LYS F 168      -5.670  20.887  41.869  1.00 54.37 LIG 0.23  C 
BRANCH 10 11
ATOM     11  NZ  LYS F 168      -4.586  20.951  42.902  1.00 52.23 LIG-0.08  N 
ATOM     12 HZ3  LYS F 168      -3.791  20.938  42.500  1.00 52.23 LIG 0.27  HD
ATOM     13 HZ1  LYS F 168      -4.668  21.702  43.373  1.00 52.23 LIG 0.27  HD
ATOM     14 HZ2  LYS F 168      -4.653  20.251  43.448  1.00 52.23 LIG 0.27  HD
ENDBRANCH 10 11
ENDBRANCH 9 10
ENDBRANCH 8 9
ENDBRANCH 7 8
ENDBRANCH 6 7
BRANCH 6 15
ATOM     15  C   LYS F 168      -4.845  16.800  39.758  1.00 30.99 LIG 0.24  C 
ATOM     16 O    LYS F 168      -5.390  17.411  38.831  1.00 32.09 LIG-0.27  OA
ATOM     17  N   ARG F 169      -4.800  15.472  39.817  1.00 23.74 LIG-0.35  N 
ATOM     18 H    ARG F 169      -4.393  15.023  40.428  1.00 23.74 LIG 0.16  HD
BRANCH 17 19
ATOM     19  CA  ARG F 169      -5.468  14.670  38.804  1.00 28.77 LIG 0.18  C 
BRANCH 19 20
ATOM     20  C   ARG F 169      -6.981  14.795  38.954  1.00 37.10 LIG 0.24  C 
ATOM     21  N   SER F 170      -7.432  14.766  40.207  1.00 32.48 LIG-0.34  N 
ATOM     22 H    SER F 170      -6.918  14.814  40.895  1.00 32.48 LIG 0.16  HD
ATOM     23 O    ARG F 169      -7.725  14.880  37.967  1.00 33.53 LIG-0.27  OA
BRANCH 21 24
ATOM     24  CA  SER F 170      -8.853  14.650  40.535  1.00 32.11 LIG 0.19  C 
BRANCH 24 25
ATOM     25  C   SER F 170      -9.330  15.737  41.507  1.00 36.47 LIG 0.22  C 
ATOM     26 O    SER F 170      -8.628  16.095  42.454  1.00 35.83 LIG-0.29  OA
ENDBRANCH 24 25
BRANCH 24 27
ATOM     27  CB  SER F 170      -9.136  13.262  41.119  1.00 36.26 LIG 0.20  C 
BRANCH 27 28
ATOM     28 OG   SER F 170      -8.531  13.122  42.400  1.00 19.66 LIG-0.40  OA
ATOM     29 HG   SER F 170      -7.800  13.534  42.412  1.00 19.66 LIG 0.21  HD
ENDBRANCH 27 28
ENDBRANCH 24 27
ENDBRANCH 21 24
ENDBRANCH 19 20
BRANCH 19 30
ATOM     30  CB  ARG F 169      -5.018  13.205  38.883  1.00 32.99 LIG 0.04  C 
BRANCH 30 31
ATOM     31  CG  ARG F 169      -4.846  12.612  40.272  1.00 34.51 LIG 0.02  C 
BRANCH 31 32
ATOM     32  CD  ARG F 169      -6.082  11.758  40.613  1.00 39.71 LIG 0.14  C 
BRANCH 32 33
ATOM     33  NE  ARG F 169      -6.101  11.432  42.038  1.00 37.23 LIG-0.23  N 
ATOM     34  CZ  ARG F 169      -5.222  10.652  42.666  1.00 33.71 LIG 0.67  C 
ATOM     35  NH2 ARG F 169      -5.366  10.451  43.970  1.00 35.73 LIG-0.23  N 
ATOM     36  NH1 ARG F 169      -4.211  10.076  42.006  1.00 22.18 LIG-0.23  N 
ATOM     37 2HH2 ARG F 169      -4.809   9.951  44.392  1.00 35.73 LIG 0.17  HD
ATOM     38 1HH2 ARG F 169      -6.017  10.822  44.393  1.00 35.73 LIG 0.17  HD
ATOM     39 1HH1 ARG F 169      -4.118  10.207  41.161  1.00 22.18 LIG 0.17  HD
ATOM     40 2HH1 ARG F 169      -3.653   9.575  42.427  1.00 22.18 LIG 0.17  HD
ATOM     41 HE   ARG F 169      -6.732  11.773  42.512  1.00 37.23 LIG 0.18  HD
ENDBRANCH 32 33
ENDBRANCH 31 32
ENDBRANCH 30 31
ENDBRANCH 19 30
ENDBRANCH 17 19
ENDBRANCH 6 15
ENDBRANCH 3 6
ENDBRANCH 1 2
BRANCH 1 42
ATOM     42  CB  ARG F 167      -2.856  20.270  37.536  1.00 34.27 LIG 0.04  C 
BRANCH 42 43
ATOM     43  CG  ARG F 167      -2.437  21.573  36.885  1.00 36.76 LIG 0.02  C 
BRANCH 43 44
ATOM     44  CD  ARG F 167      -3.632  22.453  36.646  1.00 47.53 LIG 0.14  C 
BRANCH 44 45
ATOM     45  NE  ARG F 167      -4.136  22.295  35.289  1.00 46.15 LIG-0.23  N 
ATOM     46 HE   ARG F 167      -3.928  21.581  34.857  1.00 46.15 LIG 0.18  HD
ATOM     47  CZ  ARG F 167      -4.899  23.197  34.685  1.00 54.25 LIG 0.67  C 
ATOM     48  NH2 ARG F 167      -5.330  22.989  33.445  1.00 44.38 LIG-0.23  N 
ATOM     49  NH1 ARG F 167      -5.224  24.311  35.333  1.00 45.80 LIG-0.23  N 
ATOM     50 1HH2 ARG F 167      -5.114  22.267  33.030  1.00 44.38 LIG 0.17  HD
ATOM     51 2HH2 ARG F 167      -5.824  23.576  33.058  1.00 44.38 LIG 0.17  HD
ATOM     52 2HH1 ARG F 167      -5.718  24.902  34.951  1.00 45.80 LIG 0.17  HD
ATOM     53 1HH1 ARG F 167      -4.940  24.442  36.134  1.00 45.80 LIG 0.17  HD
ENDBRANCH 44 45
ENDBRANCH 43 44
ENDBRANCH 42 43
ENDBRANCH 1 42
BRANCH 1 54
ATOM     54  N   ARG F 167      -0.651  19.862  38.586  1.00 32.00 LIG-0.35  N 
ATOM     55 H    ARG F 167      -0.392  19.081  38.335  1.00 32.00 LIG 0.16  HD
ATOM     56  C   GLN F 166       0.177  20.893  38.744  1.00 42.00 LIG 0.24  C 
ATOM     57 O    GLN F 166      -0.201  22.037  39.018  1.00 37.97 LIG-0.27  OA
BRANCH 56 58
ATOM     58  CA  GLN F 166       1.650  20.578  38.550  1.00 41.36 LIG 0.18  C 
BRANCH 58 59
ATOM     59  CB  GLN F 166       2.219  20.007  39.854  1.00 34.92 LIG 0.04  C 
BRANCH 59 60
ATOM     60  CG  GLN F 166       2.812  18.626  39.740  1.00 32.73 LIG 0.10  C 
BRANCH 60 61
ATOM     61  CD  GLN F 166       2.910  17.942  41.091  1.00 43.28 LIG 0.21  C 
ATOM     62  NE2 GLN F 166       3.822  16.982  41.207  1.00 36.91 LIG-0.37  N 
ATOM     63 21HE GLN F 166       4.322  16.780  40.537  1.00 36.91 LIG 0.16  HD
ATOM     64 22HE GLN F 166       3.913  16.564  41.953  1.00 36.91 LIG 0.16  HD
ATOM     65 OE1  GLN F 166       2.167  18.272  42.020  1.00 42.55 LIG-0.27  OA
ENDBRANCH 60 61
ENDBRANCH 59 60
ENDBRANCH 58 59
BRANCH 58 66
ATOM     66  N   GLN F 166       2.340  21.787  38.125  1.00 35.11 LIG-0.35  N 
ATOM     67  C   THR F 165       3.570  21.762  37.620  1.00 35.16 LIG 0.24  C 
ATOM     68 O    THR F 165       4.234  20.720  37.547  1.00 30.91 LIG-0.27  OA
ATOM     69 H    GLN F 166       1.884  22.509  38.231  1.00 35.11 LIG 0.16  HD
BRANCH 67 70
ATOM     70  CA  THR F 165       4.166  23.071  37.121  1.00 44.00 LIG 0.20  C 
BRANCH 70 71
ATOM     71  CB  THR F 165       5.083  23.669  38.194  1.00 46.85 LIG 0.15  C 
ATOM     72  CG2 THR F 165       6.541  23.629  37.733  1.00 37.95 LIG 0.04  C 
BRANCH 71 73
ATOM     73 OG1  THR F 165       4.685  25.019  38.467  1.00 45.14 LIG-0.39  OA
ATOM     74 HG1  THR F 165       5.175  25.340  39.070  1.00 45.14 LIG 0.21  HD
ENDBRANCH 71 73
ENDBRANCH 70 71
BRANCH 70 75
ATOM     75  N   THR F 165       3.142  24.033  36.729  1.00 38.01 LIG-0.34  N 
ATOM     76 H    THR F 165       2.668  24.327  37.383  1.00 38.01 LIG 0.16  HD
ATOM     77  C   THR F 164       2.971  24.411  35.462  1.00 57.69 LIG 0.26  C 
ATOM     78 O    THR F 164       3.664  23.978  34.535  1.00 49.67 LIG-0.27  OA
BRANCH 77 79
ATOM     79  CA  THR F 164       1.851  25.424  35.203  1.00 56.73 LIG 0.43  C 
ATOM     80  N   THR F 164       2.401  26.755  34.959  1.00 65.32 LIG 0.62  N 
BRANCH 79 81
ATOM     81  CB  THR F 164       0.975  24.943  34.015  1.00 58.05 LIG 0.16  C 
ATOM     82  CG2 THR F 164       0.266  26.128  33.364  1.00 51.52 LIG 0.04  C 
BRANCH 81 83
ATOM     83 OG1  THR F 164       1.790  24.282  33.037  1.00 58.15 LIG-0.39  OA
ATOM     84 HG1  THR F 164       2.095  23.570  33.361  1.00 58.15 LIG 0.21  HD
ENDBRANCH 81 83
ENDBRANCH 79 81
ENDBRANCH 77 79
ENDBRANCH 70 75
ENDBRANCH 67 70
ENDBRANCH 58 66
ENDBRANCH 56 58
ENDBRANCH 1 54
TORSDOF 35
ENDMDL
MODEL 3
USER: ADFR SOLUTION from run 113
USER: SCORE 27.382888 LL:  -3.761 LR: -24.005 RR:   0.000 FEB: -13.565
USER: RMSD 2.823095
USER: SEED 112
USER: STATUS no improvement in best in 4 clusters for 5 generations
USER: GENES 37
USER: genes 0 Translation |==|  0.45668 0.57539 0.51048
USER: genes 1 Rotation |==|  0.47912 0.48496 0.54539 0.99727
USER: genes 2 Torsion [N]-CA--C-[N] |==|  0.42637
USER: genes 3 Torsion [C]-N--CA-[C] |==|  0.83492
USER: genes 4 Torsion [N]-CA--CB-[CG] |==|  0.07745
USER: genes 5 Torsion [CA]-CB--CG-[CD] |==|  0.69297
USER: genes 6 Torsion [CB]-CG--CD-[CE] |==|  0.28577
USER: genes 7 Torsion [CG]-CD--CE-[NZ] |==|  0.71176
USER: genes 8 Torsion [CD]-CE--NZ-[HZ3] |==|  0.60851
USER: genes 9 Torsion [N]-CA--C-[N] |==|  0.41807
USER: genes 10 Torsion [C]-N--CA-[C] |==|  0.80831
USER: genes 11 Torsion [N]-CA--C-[N] |==|  0.33333
USER: genes 12 Torsion [C]-N--CA-[C] |==|  0.73653
USER: genes 13 Torsion [N]-CA--C-[O] |==|  0.01052
USER: genes 14 Torsion [N]-CA--CB-[OG] |==|  0.14539
USER: genes 15 Torsion [CA]-CB--OG-[HG] |==|  0.71960
USER: genes 16 Torsion [N]-CA--CB-[CG] |==|  0.08777
USER: genes 17 Torsion [CA]-CB--CG-[CD] |==|  0.23140
USER: genes 18 Torsion [CB]-CG--CD-[NE] |==|  0.49577
USER: genes 19 Torsion [CG]-CD--NE-[CZ] |==|  0.85135
USER: genes 20 Torsion [C]-CA--CB-[CG] |==|  0.52445
USER: genes 21 Torsion [CA]-CB--CG-[CD] |==|  0.66627
USER: genes 22 Torsion [CB]-CG--CD-[NE] |==|  0.72755
USER: genes 23 Torsion [CG]-CD--NE-[CZ] |==|  0.54070
USER: genes 24 Torsion [C]-CA--N-[C] |==|  0.60838
USER: genes 25 Torsion [N]-C--CA-[N] |==|  0.42348
USER: genes 26 Torsion [C]-CA--CB-[CG] |==|  0.27720
USER: genes 27 Torsion [CA]-CB--CG-[CD] |==|  0.18940
USER: genes 28 Torsion [CB]-CG--CD-[NE2] |==|  0.39907
USER: genes 29 Torsion [C]-CA--N-[C] |==|  0.62733
USER: genes 30 Torsion [N]-C--CA-[N] |==|  0.37679
USER: genes 31 Torsion [C]-CA--CB-[CG2] |==|  0.40827
USER: genes 32 Torsion [CA]-CB--OG1-[HG1] |==|  0.30841
USER: genes 33 Torsion [C]-CA--N-[C] |==|  0.83320
USER: genes 34 Torsion [N]-C--CA-[N] |==|  0.49622
USER: genes 35 Torsion [C]-CA--CB-[OG1] |==|  0.19053
USER: genes 36 Torsion [CA]-CB--OG1-[HG1] |==|  0.72223
ROOT
ATOM      1  CA  ARG F 167      -2.283  20.043  38.868  1.00 38.85 LIG 0.18  C 
ENDROOT
BRANCH 1 2
ATOM      2  C   ARG F 167      -2.689  18.688  39.419  1.00 41.97 LIG 0.24  C 
ATOM      3  N   LYS F 168      -3.845  18.655  40.084  1.00 42.42 LIG-0.35  N 
ATOM      4 H    LYS F 168      -4.316  19.346  40.284  1.00 42.42 LIG 0.16  HD
ATOM      5 O    ARG F 167      -1.971  17.697  39.259  1.00 34.60 LIG-0.27  OA
BRANCH 3 6
ATOM      6  CA  LYS F 168      -4.397  17.381  40.527  1.00 39.35 LIG 0.18  C 
BRANCH 6 7
ATOM      7  CB  LYS F 168      -5.703  17.590  41.296  1.00 43.51 LIG 0.04  C 
BRANCH 7 8
ATOM      8  CG  LYS F 168      -6.473  18.834  40.895  1.00 39.69 LIG 0.00  C 
BRANCH 8 9
ATOM      9  CD  LYS F 168      -6.464  19.895  41.994  1.00 48.24 LIG 0.03  C 
BRANCH 9 10
ATOM     10  CE  LYS F 168      -5.479  21.025  41.687  1.00 54.37 LIG 0.23  C 
BRANCH 10 11
ATOM     11  NZ  LYS F 168      -4.211  20.951  42.482  1.00 52.23 LIG-0.08  N 
ATOM     12 HZ3  LYS F 168      -3.964  21.771  42.724  1.00 52.23 LIG 0.27  HD
ATOM     13 HZ1  LYS F 168      -4.344  20.454  43.208  1.00 52.23 LIG 0.27  HD
ATOM     14 HZ2  LYS F 168      -3.570  20.584  41.985  1.00 52.23 LIG 0.27  HD
ENDBRANCH 10 11
ENDBRANCH 9 10
ENDBRANCH 8 9
ENDBRANCH 7 8
ENDBRANCH 6 7
BRANCH 6 15
ATOM     15  C   LYS F 168      -4.631  16.477  39.322  1.00 30.99 LIG 0.24  C 
ATOM     16 O    LYS F 168      -4.858  16.950  38.203  1.00 32.09 LIG-0.27  OA
ATOM     17  N   ARG F 169      -4.538  15.168  39.546  1.00 23.74 LIG-0.35  N 
ATOM     18 H    ARG F 169      -4.342  14.815  40.306  1.00 23.74 LIG 0.16  HD
BRANCH 17 19
ATOM     19  CA  ARG F 169      -4.774  14.222  38.467  1.00 28.77 LIG 0.18  C 
BRANCH 19 20
ATOM     20  C   ARG F 169      -6.249  14.234  38.076  1.00 37.10 LIG 0.24  C 
ATOM     21  N   SER F 170      -6.499  14.570  36.812  1.00 32.48 LIG-0.34  N 
ATOM     22 H    SER F 170      -5.887  14.643  36.212  1.00 32.48 LIG 0.16  HD
ATOM     23 O    ARG F 169      -7.139  13.980  38.900  1.00 33.53 LIG-0.27  OA
BRANCH 21 24
ATOM     24  CA  SER F 170      -7.848  14.849  36.319  1.00 32.11 LIG 0.19  C 
BRANCH 24 25
ATOM     25  C   SER F 170      -8.513  13.623  35.680  1.00 36.47 LIG 0.22  C 
ATOM     26 O    SER F 170      -7.953  12.526  35.678  1.00 35.83 LIG-0.29  OA
ENDBRANCH 24 25
BRANCH 24 27
ATOM     27  CB  SER F 170      -7.801  16.006  35.314  1.00 36.26 LIG 0.20  C 
BRANCH 27 28
ATOM     28 OG   SER F 170      -6.836  15.753  34.299  1.00 19.66 LIG-0.40  OA
ATOM     29 HG   SER F 170      -6.135  16.185  34.464  1.00 19.66 LIG 0.21  HD
ENDBRANCH 27 28
ENDBRANCH 24 27
ENDBRANCH 21 24
ENDBRANCH 19 20
BRANCH 19 30
ATOM     30  CB  ARG F 169      -4.314  12.813  38.866  1.00 32.99 LIG 0.04  C 
BRANCH 30 31
ATOM     31  CG  ARG F 169      -4.422  12.445  40.338  1.00 34.51 LIG 0.02  C 
BRANCH 31 32
ATOM     32  CD  ARG F 169      -5.858  11.977  40.637  1.00 39.71 LIG 0.14  C 
BRANCH 32 33
ATOM     33  NE  ARG F 169      -5.985  11.580  42.039  1.00 37.23 LIG-0.23  N 
ATOM     34  CZ  ARG F 169      -5.210  10.699  42.668  1.00 33.71 LIG 0.67  C 
ATOM     35  NH2 ARG F 169      -5.444  10.444  43.949  1.00 35.73 LIG-0.23  N 
ATOM     36  NH1 ARG F 169      -4.211  10.076  42.032  1.00 22.18 LIG-0.23  N 
ATOM     37 2HH2 ARG F 169      -4.953   9.878  44.372  1.00 35.73 LIG 0.17  HD
ATOM     38 1HH2 ARG F 169      -6.086  10.845  44.356  1.00 35.73 LIG 0.17  HD
ATOM     39 1HH1 ARG F 169      -4.060  10.242  41.202  1.00 22.18 LIG 0.17  HD
ATOM     40 2HH1 ARG F 169      -3.720   9.509  42.453  1.00 22.18 LIG 0.17  HD
ATOM     41 HE   ARG F 169      -6.614  11.947  42.497  1.00 37.23 LIG 0.18  HD
ENDBRANCH 32 33
ENDBRANCH 31 32
ENDBRANCH 30 31
ENDBRANCH 19 30
ENDBRANCH 17 19
ENDBRANCH 6 15
ENDBRANCH 3 6
ENDBRANCH 1 2
BRANCH 1 42
ATOM     42  CB  ARG F 167      -2.966  20.285  37.516  1.00 34.27 LIG 0.04  C 
BRANCH 42 43
ATOM     43  CG  ARG F 167      -2.454  21.517  36.798  1.00 36.76 LIG 0.02  C 
BRANCH 43 44
ATOM     44  CD  ARG F 167      -3.571  22.495  36.564  1.00 47.53 LIG 0.14  C 
BRANCH 44 45
ATOM     45  NE  ARG F 167      -4.100  22.374  35.213  1.00 46.15 LIG-0.23  N 
ATOM     46 HE   ARG F 167      -3.893  21.676  34.755  1.00 46.15 LIG 0.18  HD
ATOM     47  CZ  ARG F 167      -4.883  23.285  34.652  1.00 54.25 LIG 0.67  C 
ATOM     48  NH2 ARG F 167      -5.336  23.111  33.414  1.00 44.38 LIG-0.23  N 
ATOM     49  NH1 ARG F 167      -5.207  24.376  35.340  1.00 45.80 LIG-0.23  N 
ATOM     50 1HH2 ARG F 167      -5.122  22.405  32.973  1.00 44.38 LIG 0.17  HD
ATOM     51 2HH2 ARG F 167      -5.844  23.704  33.055  1.00 44.38 LIG 0.17  HD
ATOM     52 2HH1 ARG F 167      -5.714  24.972  34.985  1.00 45.80 LIG 0.17  HD
ATOM     53 1HH1 ARG F 167      -4.908  24.485  36.139  1.00 45.80 LIG 0.17  HD
ENDBRANCH 44 45
ENDBRANCH 43 44
ENDBRANCH 42 43
ENDBRANCH 1 42
BRANCH 1 54
ATOM     54  N   ARG F 167      -0.833  20.083  38.757  1.00 32.00 LIG-0.35  N 
ATOM     55 H    ARG F 167      -0.483  19.345  38.488  1.00 32.00 LIG 0.16  HD
ATOM     56  C   GLN F 166      -0.119  21.169  39.049  1.00 42.00 LIG 0.24  C 
ATOM     57 O    GLN F 166      -0.621  22.257  39.351  1.00 37.97 LIG-0.27  OA
BRANCH 56 58
ATOM     58  CA  GLN F 166       1.388  20.995  38.973  1.00 41.36 LIG 0.18  C 
BRANCH 58 59
ATOM     59  CB  GLN F 166       1.894  20.414  40.298  1.00 34.92 LIG 0.04  C 
BRANCH 59 60
ATOM     60  CG  GLN F 166       2.154  18.929  40.286  1.00 32.73 LIG 0.10  C 
BRANCH 60 61
ATOM     61  CD  GLN F 166       3.336  18.571  39.405  1.00 43.28 LIG 0.21  C 
ATOM     62  NE2 GLN F 166       4.111  17.576  39.825  1.00 36.91 LIG-0.37  N 
ATOM     63 21HE GLN F 166       3.930  17.170  40.561  1.00 36.91 LIG 0.16  HD
ATOM     64 22HE GLN F 166       4.795  17.338  39.360  1.00 36.91 LIG 0.16  HD
ATOM     65 OE1  GLN F 166       3.551  19.186  38.357  1.00 42.55 LIG-0.27  OA
ENDBRANCH 60 61
ENDBRANCH 59 60
ENDBRANCH 58 59
BRANCH 58 66
ATOM     66  N   GLN F 166       1.998  22.279  38.660  1.00 35.11 LIG-0.35  N 
ATOM     67  C   THR F 165       2.946  22.408  37.737  1.00 35.16 LIG 0.24  C 
ATOM     68 O    THR F 165       3.422  21.435  37.137  1.00 30.91 LIG-0.27  OA
ATOM     69 H    GLN F 166       1.692  22.936  39.123  1.00 35.11 LIG 0.16  HD
BRANCH 67 70
ATOM     70  CA  THR F 165       3.452  23.809  37.421  1.00 44.00 LIG 0.20  C 
BRANCH 70 71
ATOM     71  CB  THR F 165       2.804  24.319  36.129  1.00 46.85 LIG 0.15  C 
ATOM     72  CG2 THR F 165       2.600  25.833  36.196  1.00 37.95 LIG 0.04  C 
BRANCH 71 73
ATOM     73 OG1  THR F 165       3.634  23.978  35.010  1.00 45.14 LIG-0.39  OA
ATOM     74 HG1  THR F 165       3.250  23.395  34.543  1.00 45.14 LIG 0.21  HD
ENDBRANCH 71 73
ENDBRANCH 70 71
BRANCH 70 75
ATOM     75  N   THR F 165       4.906  23.862  37.321  1.00 38.01 LIG-0.34  N 
ATOM     76 H    THR F 165       5.196  24.124  36.555  1.00 38.01 LIG 0.16  HD
ATOM     77  C   THR F 164       5.701  23.531  38.339  1.00 57.69 LIG 0.26  C 
ATOM     78 O    THR F 164       5.267  23.157  39.433  1.00 49.67 LIG-0.27  OA
BRANCH 77 79
ATOM     79  CA  THR F 164       7.208  23.631  38.082  1.00 56.73 LIG 0.43  C 
ATOM     80  N   THR F 164       7.964  23.273  39.279  1.00 65.32 LIG 0.62  N 
BRANCH 79 81
ATOM     81  CB  THR F 164       7.594  22.735  36.875  1.00 58.05 LIG 0.16  C 
ATOM     82  CG2 THR F 164       7.064  21.317  37.075  1.00 51.52 LIG 0.04  C 
BRANCH 81 83
ATOM     83 OG1  THR F 164       7.050  23.278  35.664  1.00 58.15 LIG-0.39  OA
ATOM     84 HG1  THR F 164       6.350  22.862  35.459  1.00 58.15 LIG 0.21  HD
ENDBRANCH 81 83
ENDBRANCH 79 81
ENDBRANCH 77 79
ENDBRANCH 70 75
ENDBRANCH 67 70
ENDBRANCH 58 66
ENDBRANCH 56 58
ENDBRANCH 1 54
TORSDOF 35
ENDMDL
MODEL 4
USER: ADFR SOLUTION from run 14
USER: SCORE 26.665287 LL:  -3.522 LR: -23.790 RR:   0.000 FEB: -13.349
USER: RMSD 3.310195
USER: SEED 478482
USER: STATUS searching
USER: GENES 37
USER: genes 0 Translation |==|  0.46161 0.57028 0.51502
USER: genes 1 Rotation |==|  0.48171 0.50769 0.51349 0.99942
USER: genes 2 Torsion [N]-CA--C-[N] |==|  0.46807
USER: genes 3 Torsion [C]-N--CA-[C] |==|  0.82277
USER: genes 4 Torsion [N]-CA--CB-[CG] |==|  0.88162
USER: genes 5 Torsion [CA]-CB--CG-[CD] |==|  0.62934
USER: genes 6 Torsion [CB]-CG--CD-[CE] |==|  0.23824
USER: genes 7 Torsion [CG]-CD--CE-[NZ] |==|  0.92109
USER: genes 8 Torsion [CD]-CE--NZ-[HZ3] |==|  0.13917
USER: genes 9 Torsion [N]-CA--C-[N] |==|  0.40439
USER: genes 10 Torsion [C]-N--CA-[C] |==|  0.78886
USER: genes 11 Torsion [N]-CA--C-[N] |==|  0.94324
USER: genes 12 Torsion [C]-N--CA-[C] |==|  0.80804
USER: genes 13 Torsion [N]-CA--C-[O] |==|  0.90112
USER: genes 14 Torsion [N]-CA--CB-[OG] |==|  0.03189
USER: genes 15 Torsion [CA]-CB--OG-[HG] |==|  0.85377
USER: genes 16 Torsion [N]-CA--CB-[CG] |==|  0.10473
USER: genes 17 Torsion [CA]-CB--CG-[CD] |==|  0.20536
USER: genes 18 Torsion [CB]-CG--CD-[NE] |==|  0.50001
USER: genes 19 Torsion [CG]-CD--NE-[CZ] |==|  0.85414
USER: genes 20 Torsion [C]-CA--CB-[CG] |==|  0.30317
USER: genes 21 Torsion [CA]-CB--CG-[CD] |==|  0.06687
USER: genes 22 Torsion [CB]-CG--CD-[NE] |==|  0.73764
USER: genes 23 Torsion [CG]-CD--NE-[CZ] |==|  0.33850
USER: genes 24 Torsion [C]-CA--N-[C] |==|  0.56886
USER: genes 25 Torsion [N]-C--CA-[N] |==|  0.45113
USER: genes 26 Torsion [C]-CA--CB-[CG] |==|  0.33433
USER: genes 27 Torsion [CA]-CB--CG-[CD] |==|  0.54465
USER: genes 28 Torsion [CB]-CG--CD-[NE2] |==|  0.55219
USER: genes 29 Torsion [C]-CA--N-[C] |==|  0.54473
USER: genes 30 Torsion [N]-C--CA-[N] |==|  0.94081
USER: genes 31 Torsion [C]-CA--CB-[CG2] |==|  0.31621
USER: genes 32 Torsion [CA]-CB--OG1-[HG1] |==|  0.49672
USER: genes 33 Torsion [C]-CA--N-[C] |==|  0.67313
USER: genes 34 Torsion [N]-C--CA-[N] |==|  0.29337
USER: genes 35 Torsion [C]-CA--CB-[OG1] |==|  0.90298
USER: genes 36 Torsion [CA]-CB--OG1-[HG1] |==|  0.18505
ROOT
ATOM      1  CA  ARG F 167      -2.161  19.901  38.957  1.00 38.85 LIG 0.18  C 
ENDROOT
BRANCH 1 2
ATOM      2  C   ARG F 167      -2.693  18.604  39.540  1.00 41.97 LIG 0.24  C 
ATOM      3  N   LYS F 168      -3.931  18.654  40.033  1.00 42.42 LIG-0.35  N 
ATOM      4 H    LYS F 168      -4.399  19.372  40.112  1.00 42.42 LIG 0.16  HD
ATOM      5 O    ARG F 167      -1.998  17.584  39.557  1.00 34.60 LIG-0.27  OA
BRANCH 3 6
ATOM      6  CA  LYS F 168      -4.588  17.434  40.482  1.00 39.35 LIG 0.18  C 
BRANCH 6 7
ATOM      7  CB  LYS F 168      -5.935  17.750  41.137  1.00 43.51 LIG 0.04  C 
BRANCH 7 8
ATOM      8  CG  LYS F 168      -5.914  18.948  42.066  1.00 39.69 LIG 0.00  C 
BRANCH 8 9
ATOM      9  CD  LYS F 168      -6.612  18.661  43.393  1.00 48.24 LIG 0.03  C 
BRANCH 9 10
ATOM     10  CE  LYS F 168      -5.667  18.009  44.405  1.00 54.37 LIG 0.23  C 
BRANCH 10 11
ATOM     11  NZ  LYS F 168      -4.574  17.201  43.775  1.00 52.23 LIG-0.08  N 
ATOM     12 HZ3  LYS F 168      -4.171  17.686  43.146  1.00 52.23 LIG 0.27  HD
ATOM     13 HZ1  LYS F 168      -3.981  16.968  44.396  1.00 52.23 LIG 0.27  HD
ATOM     14 HZ2  LYS F 168      -4.920  16.468  43.408  1.00 52.23 LIG 0.27  HD
ENDBRANCH 10 11
ENDBRANCH 9 10
ENDBRANCH 8 9
ENDBRANCH 7 8
ENDBRANCH 6 7
BRANCH 6 15
ATOM     15  C   LYS F 168      -4.783  16.491  39.301  1.00 30.99 LIG 0.24  C 
ATOM     16 O    LYS F 168      -4.986  16.927  38.163  1.00 32.09 LIG-0.27  OA
ATOM     17  N   ARG F 169      -4.682  15.191  39.568  1.00 23.74 LIG-0.35  N 
ATOM     18 H    ARG F 169      -4.502  14.863  40.343  1.00 23.74 LIG 0.16  HD
BRANCH 17 19
ATOM     19  CA  ARG F 169      -4.882  14.209  38.513  1.00 28.77 LIG 0.18  C 
BRANCH 19 20
ATOM     20  C   ARG F 169      -6.369  14.069  38.205  1.00 37.10 LIG 0.24  C 
ATOM     21  N   SER F 170      -7.190  14.485  39.168  1.00 32.48 LIG-0.34  N 
ATOM     22 H    SER F 170      -6.926  14.927  39.857  1.00 32.48 LIG 0.16  HD
ATOM     23 O    ARG F 169      -6.766  13.569  37.144  1.00 33.53 LIG-0.27  OA
BRANCH 21 24
ATOM     24  CA  SER F 170      -8.631  14.227  39.146  1.00 32.11 LIG 0.19  C 
BRANCH 24 25
ATOM     25  C   SER F 170      -9.358  15.010  38.046  1.00 36.47 LIG 0.22  C 
ATOM     26 O    SER F 170      -9.003  16.148  37.735  1.00 35.83 LIG-0.29  OA
ENDBRANCH 24 25
BRANCH 24 27
ATOM     27  CB  SER F 170      -9.234  14.560  40.515  1.00 36.26 LIG 0.20  C 
BRANCH 27 28
ATOM     28 OG   SER F 170      -8.297  15.262  41.322  1.00 19.66 LIG-0.40  OA
ATOM     29 HG   SER F 170      -7.576  14.833  41.353  1.00 19.66 LIG 0.21  HD
ENDBRANCH 27 28
ENDBRANCH 24 27
ENDBRANCH 21 24
ENDBRANCH 19 20
BRANCH 19 30
ATOM     30  CB  ARG F 169      -4.262  12.860  38.900  1.00 32.99 LIG 0.04  C 
BRANCH 30 31
ATOM     31  CG  ARG F 169      -4.378  12.441  40.357  1.00 34.51 LIG 0.02  C 
BRANCH 31 32
ATOM     32  CD  ARG F 169      -5.828  12.005  40.643  1.00 39.71 LIG 0.14  C 
BRANCH 32 33
ATOM     33  NE  ARG F 169      -5.973  11.595  42.039  1.00 37.23 LIG-0.23  N 
ATOM     34  CZ  ARG F 169      -5.211  10.700  42.666  1.00 33.71 LIG 0.67  C 
ATOM     35  NH2 ARG F 169      -5.461  10.434  43.942  1.00 35.73 LIG-0.23  N 
ATOM     36  NH1 ARG F 169      -4.211  10.076  42.034  1.00 22.18 LIG-0.23  N 
ATOM     37 2HH2 ARG F 169      -4.980   9.860  44.364  1.00 35.73 LIG 0.17  HD
ATOM     38 1HH2 ARG F 169      -6.104  10.837  44.347  1.00 35.73 LIG 0.17  HD
ATOM     39 1HH1 ARG F 169      -4.050  10.250  41.208  1.00 22.18 LIG 0.17  HD
ATOM     40 2HH1 ARG F 169      -3.729   9.501  42.455  1.00 22.18 LIG 0.17  HD
ATOM     41 HE   ARG F 169      -6.603  11.963  42.494  1.00 37.23 LIG 0.18  HD
ENDBRANCH 32 33
ENDBRANCH 31 32
ENDBRANCH 30 31
ENDBRANCH 19 30
ENDBRANCH 17 19
ENDBRANCH 6 15
ENDBRANCH 3 6
ENDBRANCH 1 2
BRANCH 1 42
ATOM     42  CB  ARG F 167      -2.920  20.246  37.669  1.00 34.27 LIG 0.04  C 
BRANCH 42 43
ATOM     43  CG  ARG F 167      -3.847  21.435  37.821  1.00 36.76 LIG 0.02  C 
BRANCH 43 44
ATOM     44  CD  ARG F 167      -3.390  22.320  38.947  1.00 47.53 LIG 0.14  C 
BRANCH 44 45
ATOM     45  NE  ARG F 167      -4.077  21.988  40.187  1.00 46.15 LIG-0.23  N 
ATOM     46 HE   ARG F 167      -4.935  22.029  40.202  1.00 46.15 LIG 0.18  HD
ATOM     47  CZ  ARG F 167      -3.445  21.625  41.295  1.00 54.25 LIG 0.67  C 
ATOM     48  NH2 ARG F 167      -4.133  21.329  42.394  1.00 44.38 LIG-0.23  N 
ATOM     49  NH1 ARG F 167      -2.117  21.564  41.296  1.00 45.80 LIG-0.23  N 
ATOM     50 1HH2 ARG F 167      -4.991  21.373  42.388  1.00 44.38 LIG 0.17  HD
ATOM     51 2HH2 ARG F 167      -3.719  21.094  43.110  1.00 44.38 LIG 0.17  HD
ATOM     52 2HH1 ARG F 167      -1.698  21.330  42.009  1.00 45.80 LIG 0.17  HD
ATOM     53 1HH1 ARG F 167      -1.677  21.759  40.583  1.00 45.80 LIG 0.17  HD
ENDBRANCH 44 45
ENDBRANCH 43 44
ENDBRANCH 42 43
ENDBRANCH 1 42
BRANCH 1 54
ATOM     54  N   ARG F 167      -0.733  19.753  38.721  1.00 32.00 LIG-0.35  N 
ATOM     55 H    ARG F 167      -0.481  18.938  38.611  1.00 32.00 LIG 0.16  HD
ATOM     56  C   GLN F 166       0.101  20.791  38.681  1.00 42.00 LIG 0.24  C 
ATOM     57 O    GLN F 166      -0.268  21.968  38.751  1.00 37.97 LIG-0.27  OA
BRANCH 56 58
ATOM     58  CA  GLN F 166       1.570  20.437  38.527  1.00 41.36 LIG 0.18  C 
BRANCH 58 59
ATOM     59  CB  GLN F 166       2.098  19.890  39.857  1.00 34.92 LIG 0.04  C 
BRANCH 59 60
ATOM     60  CG  GLN F 166       2.645  18.486  39.798  1.00 32.73 LIG 0.10  C 
BRANCH 60 61
ATOM     61  CD  GLN F 166       2.781  17.875  41.180  1.00 43.28 LIG 0.21  C 
ATOM     62  NE2 GLN F 166       3.590  16.826  41.289  1.00 36.91 LIG-0.37  N 
ATOM     63 21HE GLN F 166       4.006  16.529  40.597  1.00 36.91 LIG 0.16  HD
ATOM     64 22HE GLN F 166       3.698  16.444  42.052  1.00 36.91 LIG 0.16  HD
ATOM     65 OE1  GLN F 166       2.161  18.341  42.140  1.00 42.55 LIG-0.27  OA
ENDBRANCH 60 61
ENDBRANCH 59 60
ENDBRANCH 58 59
BRANCH 58 66
ATOM     66  N   GLN F 166       2.297  21.618  38.084  1.00 35.11 LIG-0.35  N 
ATOM     67  C   THR F 165       3.520  21.546  37.568  1.00 35.16 LIG 0.24  C 
ATOM     68 O    THR F 165       4.147  20.481  37.499  1.00 30.91 LIG-0.27  OA
ATOM     69 H    GLN F 166       1.866  22.355  38.187  1.00 35.11 LIG 0.16  HD
BRANCH 67 70
ATOM     70  CA  THR F 165       4.156  22.829  37.051  1.00 44.00 LIG 0.20  C 
BRANCH 70 71
ATOM     71  CB  THR F 165       5.175  23.353  38.069  1.00 46.85 LIG 0.15  C 
ATOM     72  CG2 THR F 165       6.590  23.281  37.493  1.00 37.95 LIG 0.04  C 
BRANCH 71 73
ATOM     73 OG1  THR F 165       4.850  24.705  38.421  1.00 45.14 LIG-0.39  OA
ATOM     74 HG1  THR F 165       5.399  24.986  38.991  1.00 45.14 LIG 0.21  HD
ENDBRANCH 71 73
ENDBRANCH 70 71
BRANCH 70 75
ATOM     75  N   THR F 165       3.165  23.854  36.745  1.00 38.01 LIG-0.34  N 
ATOM     76 H    THR F 165       2.706  24.114  37.424  1.00 38.01 LIG 0.16  HD
ATOM     77  C   THR F 164       2.999  24.335  35.512  1.00 57.69 LIG 0.26  C 
ATOM     78 O    THR F 164       3.668  23.951  34.547  1.00 49.67 LIG-0.27  OA
BRANCH 77 79
ATOM     79  CA  THR F 164       1.914  25.404  35.343  1.00 56.73 LIG 0.43  C 
ATOM     80  N   THR F 164       2.511  26.727  35.174  1.00 65.32 LIG 0.62  N 
BRANCH 79 81
ATOM     81  CB  THR F 164       0.997  25.035  34.147  1.00 58.05 LIG 0.16  C 
ATOM     82  CG2 THR F 164       0.332  26.289  33.581  1.00 51.52 LIG 0.04  C 
BRANCH 81 83
ATOM     83 OG1  THR F 164       1.764  24.399  33.116  1.00 58.15 LIG-0.39  OA
ATOM     84 HG1  THR F 164       2.041  23.655  33.391  1.00 58.15 LIG 0.21  HD
ENDBRANCH 81 83
ENDBRANCH 79 81
ENDBRANCH 77 79
ENDBRANCH 70 75
ENDBRANCH 67 70
ENDBRANCH 58 66
ENDBRANCH 56 58
ENDBRANCH 1 54
TORSDOF 35
ENDMDL
MODEL 5
USER: ADFR SOLUTION from run 82
USER: SCORE 27.831919 LL:  -4.818 LR: -23.430 RR:   0.000 FEB: -12.990
USER: RMSD 3.360561
USER: SEED 81
USER: STATUS searching
USER: GENES 37
USER: genes 0 Translation |==|  0.45972 0.56954 0.51104
USER: genes 1 Rotation |==|  0.48897 0.50698 0.53141 0.99884
USER: genes 2 Torsion [N]-CA--C-[N] |==|  0.37996
USER: genes 3 Torsion [C]-N--CA-[C] |==|  0.83189
USER: genes 4 Torsion [N]-CA--CB-[CG] |==|  0.20506
USER: genes 5 Torsion [CA]-CB--CG-[CD] |==|  0.62806
USER: genes 6 Torsion [CB]-CG--CD-[CE] |==|  0.23084
USER: genes 7 Torsion [CG]-CD--CE-[NZ] |==|  0.74749
USER: genes 8 Torsion [CD]-CE--NZ-[HZ3] |==|  0.58253
USER: genes 9 Torsion [N]-CA--C-[N] |==|  0.39706
USER: genes 10 Torsion [C]-N--CA-[C] |==|  0.82271
USER: genes 11 Torsion [N]-CA--C-[N] |==|  0.89743
USER: genes 12 Torsion [C]-N--CA-[C] |==|  0.74800
USER: genes 13 Torsion [N]-CA--C-[O] |==|  0.07781
USER: genes 14 Torsion [N]-CA--CB-[OG] |==|  0.87408
USER: genes 15 Torsion [CA]-CB--OG-[HG] |==|  0.35051
USER: genes 16 Torsion [N]-CA--CB-[CG] |==|  0.10223
USER: genes 17 Torsion [CA]-CB--CG-[CD] |==|  0.29714
USER: genes 18 Torsion [CB]-CG--CD-[NE] |==|  0.54664
USER: genes 19 Torsion [CG]-CD--NE-[CZ] |==|  0.81750
USER: genes 20 Torsion [C]-CA--CB-[CG] |==|  0.50623
USER: genes 21 Torsion [CA]-CB--CG-[CD] |==|  0.64234
USER: genes 22 Torsion [CB]-CG--CD-[NE] |==|  0.73106
USER: genes 23 Torsion [CG]-CD--NE-[CZ] |==|  0.56372
USER: genes 24 Torsion [C]-CA--N-[C] |==|  0.61880
USER: genes 25 Torsion [N]-C--CA-[N] |==|  0.43006
USER: genes 26 Torsion [C]-CA--CB-[CG] |==|  0.36380
USER: genes 27 Torsion [CA]-CB--CG-[CD] |==|  0.22852
USER: genes 28 Torsion [CB]-CG--CD-[NE2] |==|  0.51521
USER: genes 29 Torsion [C]-CA--N-[C] |==|  0.62300
USER: genes 30 Torsion [N]-C--CA-[N] |==|  0.36810
USER: genes 31 Torsion [C]-CA--CB-[CG2] |==|  0.39554
USER: genes 32 Torsion [CA]-CB--OG1-[HG1] |==|  0.96483
USER: genes 33 Torsion [C]-CA--N-[C] |==|  0.76588
USER: genes 34 Torsion [N]-C--CA-[N] |==|  0.56677
USER: genes 35 Torsion [C]-CA--CB-[OG1] |==|  0.16415
USER: genes 36 Torsion [CA]-CB--OG1-[HG1] |==|  0.53869
ROOT
ATOM      1  CA  ARG F 167      -2.208  19.881  38.879  1.00 38.85 LIG 0.18  C 
ENDROOT
BRANCH 1 2
ATOM      2  C   ARG F 167      -2.645  18.532  39.423  1.00 41.97 LIG 0.24  C 
ATOM      3  N   LYS F 168      -3.502  18.568  40.444  1.00 42.42 LIG-0.35  N 
ATOM      4 H    LYS F 168      -3.749  19.284  40.852  1.00 42.42 LIG 0.16  HD
ATOM      5 O    ARG F 167      -2.209  17.482  38.941  1.00 34.60 LIG-0.27  OA
BRANCH 3 6
ATOM      6  CA  LYS F 168      -4.095  17.335  40.944  1.00 39.35 LIG 0.18  C 
BRANCH 6 7
ATOM      7  CB  LYS F 168      -4.993  17.612  42.152  1.00 43.51 LIG 0.04  C 
BRANCH 7 8
ATOM      8  CG  LYS F 168      -6.316  18.270  41.810  1.00 39.69 LIG 0.00  C 
BRANCH 8 9
ATOM      9  CD  LYS F 168      -6.633  19.440  42.739  1.00 48.24 LIG 0.03  C 
BRANCH 9 10
ATOM     10  CE  LYS F 168      -5.941  20.729  42.290  1.00 54.37 LIG 0.23  C 
BRANCH 10 11
ATOM     11  NZ  LYS F 168      -4.588  20.930  42.900  1.00 52.23 LIG-0.08  N 
ATOM     12 HZ3  LYS F 168      -4.422  21.802  42.976  1.00 52.23 LIG 0.27  HD
ATOM     13 HZ1  LYS F 168      -4.566  20.554  43.707  1.00 52.23 LIG 0.27  HD
ATOM     14 HZ2  LYS F 168      -3.969  20.555  42.382  1.00 52.23 LIG 0.27  HD
ENDBRANCH 10 11
ENDBRANCH 9 10
ENDBRANCH 8 9
ENDBRANCH 7 8
ENDBRANCH 6 7
BRANCH 6 15
ATOM     15  C   LYS F 168      -4.894  16.662  39.834  1.00 30.99 LIG 0.24  C 
ATOM     16 O    LYS F 168      -5.515  17.331  39.000  1.00 32.09 LIG-0.27  OA
ATOM     17  N   ARG F 169      -4.847  15.333  39.803  1.00 23.74 LIG-0.35  N 
ATOM     18 H    ARG F 169      -4.391  14.847  40.346  1.00 23.74 LIG 0.16  HD
BRANCH 17 19
ATOM     19  CA  ARG F 169      -5.601  14.597  38.799  1.00 28.77 LIG 0.18  C 
BRANCH 19 20
ATOM     20  C   ARG F 169      -7.096  14.823  39.000  1.00 37.10 LIG 0.24  C 
ATOM     21  N   SER F 170      -7.492  14.904  40.268  1.00 32.48 LIG-0.34  N 
ATOM     22 H    SER F 170      -6.948  14.965  40.931  1.00 32.48 LIG 0.16  HD
ATOM     23 O    ARG F 169      -7.875  14.890  38.039  1.00 33.53 LIG-0.27  OA
BRANCH 21 24
ATOM     24  CA  SER F 170      -8.903  14.897  40.659  1.00 32.11 LIG 0.19  C 
BRANCH 24 25
ATOM     25  C   SER F 170      -9.506  16.305  40.734  1.00 36.47 LIG 0.22  C 
ATOM     26 O    SER F 170      -9.068  17.222  40.038  1.00 35.83 LIG-0.29  OA
ENDBRANCH 24 25
BRANCH 24 27
ATOM     27  CB  SER F 170      -9.061  14.184  42.006  1.00 36.26 LIG 0.20  C 
BRANCH 27 28
ATOM     28 OG   SER F 170      -8.310  12.976  42.029  1.00 19.66 LIG-0.40  OA
ATOM     29 HG   SER F 170      -7.802  12.973  42.697  1.00 19.66 LIG 0.21  HD
ENDBRANCH 27 28
ENDBRANCH 24 27
ENDBRANCH 21 24
ENDBRANCH 19 20
BRANCH 19 30
ATOM     30  CB  ARG F 169      -5.251  13.104  38.841  1.00 32.99 LIG 0.04  C 
BRANCH 30 31
ATOM     31  CG  ARG F 169      -4.994  12.495  40.210  1.00 34.51 LIG 0.02  C 
BRANCH 31 32
ATOM     32  CD  ARG F 169      -6.188  11.602  40.599  1.00 39.71 LIG 0.14  C 
BRANCH 32 33
ATOM     33  NE  ARG F 169      -6.174  11.324  42.034  1.00 37.23 LIG-0.23  N 
ATOM     34  CZ  ARG F 169      -5.247  10.616  42.676  1.00 33.71 LIG 0.67  C 
ATOM     35  NH2 ARG F 169      -5.365  10.452  43.987  1.00 35.73 LIG-0.23  N 
ATOM     36  NH1 ARG F 169      -4.211  10.076  42.023  1.00 22.18 LIG-0.23  N 
ATOM     37 2HH2 ARG F 169      -4.776   9.998  44.419  1.00 35.73 LIG 0.17  HD
ATOM     38 1HH2 ARG F 169      -6.032  10.800  44.406  1.00 35.73 LIG 0.17  HD
ATOM     39 1HH1 ARG F 169      -4.135  10.184  41.174  1.00 22.18 LIG 0.17  HD
ATOM     40 2HH1 ARG F 169      -3.621   9.621  42.454  1.00 22.18 LIG 0.17  HD
ATOM     41 HE   ARG F 169      -6.819  11.645  42.503  1.00 37.23 LIG 0.18  HD
ENDBRANCH 32 33
ENDBRANCH 31 32
ENDBRANCH 30 31
ENDBRANCH 19 30
ENDBRANCH 17 19
ENDBRANCH 6 15
ENDBRANCH 3 6
ENDBRANCH 1 2
BRANCH 1 42
ATOM     42  CB  ARG F 167      -2.991  20.209  37.602  1.00 34.27 LIG 0.04  C 
BRANCH 42 43
ATOM     43  CG  ARG F 167      -2.575  21.519  36.965  1.00 36.76 LIG 0.02  C 
BRANCH 43 44
ATOM     44  CD  ARG F 167      -3.777  22.383  36.701  1.00 47.53 LIG 0.14  C 
BRANCH 44 45
ATOM     45  NE  ARG F 167      -4.231  22.245  35.324  1.00 46.15 LIG-0.23  N 
ATOM     46 HE   ARG F 167      -4.021  21.530  34.896  1.00 46.15 LIG 0.18  HD
ATOM     47  CZ  ARG F 167      -4.950  23.166  34.698  1.00 54.25 LIG 0.67  C 
ATOM     48  NH2 ARG F 167      -5.337  22.976  33.440  1.00 44.38 LIG-0.23  N 
ATOM     49  NH1 ARG F 167      -5.276  24.284  35.340  1.00 45.80 LIG-0.23  N 
ATOM     50 1HH2 ARG F 167      -5.120  22.252  33.029  1.00 44.38 LIG 0.17  HD
ATOM     51 2HH2 ARG F 167      -5.803  23.576  33.038  1.00 44.38 LIG 0.17  HD
ATOM     52 2HH1 ARG F 167      -5.742  24.887  34.943  1.00 45.80 LIG 0.17  HD
ATOM     53 1HH1 ARG F 167      -5.021  24.403  36.153  1.00 45.80 LIG 0.17  HD
ENDBRANCH 44 45
ENDBRANCH 43 44
ENDBRANCH 42 43
ENDBRANCH 1 42
BRANCH 1 54
ATOM     54  N   ARG F 167      -0.773  19.842  38.640  1.00 32.00 LIG-0.35  N 
ATOM     55 H    ARG F 167      -0.501  19.114  38.271  1.00 32.00 LIG 0.16  HD
ATOM     56  C   GLN F 166       0.038  20.847  38.966  1.00 42.00 LIG 0.24  C 
ATOM     57 O    GLN F 166      -0.358  21.927  39.415  1.00 37.97 LIG-0.27  OA
BRANCH 56 58
ATOM     58  CA  GLN F 166       1.516  20.588  38.736  1.00 41.36 LIG 0.18  C 
BRANCH 58 59
ATOM     59  CB  GLN F 166       2.079  19.794  39.921  1.00 34.92 LIG 0.04  C 
BRANCH 59 60
ATOM     60  CG  GLN F 166       2.893  18.581  39.548  1.00 32.73 LIG 0.10  C 
BRANCH 60 61
ATOM     61  CD  GLN F 166       4.323  18.946  39.200  1.00 43.28 LIG 0.21  C 
ATOM     62  NE2 GLN F 166       5.096  17.964  38.748  1.00 36.91 LIG-0.37  N 
ATOM     63 21HE GLN F 166       4.776  17.169  38.664  1.00 36.91 LIG 0.16  HD
ATOM     64 22HE GLN F 166       5.915  18.122  38.540  1.00 36.91 LIG 0.16  HD
ATOM     65 OE1  GLN F 166       4.731  20.103  39.340  1.00 42.55 LIG-0.27  OA
ENDBRANCH 60 61
ENDBRANCH 59 60
ENDBRANCH 58 59
BRANCH 58 66
ATOM     66  N   GLN F 166       2.196  21.861  38.547  1.00 35.11 LIG-0.35  N 
ATOM     67  C   THR F 165       3.099  22.048  37.589  1.00 35.16 LIG 0.24  C 
ATOM     68 O    THR F 165       3.473  21.133  36.844  1.00 30.91 LIG-0.27  OA
ATOM     69 H    GLN F 166       1.962  22.471  39.106  1.00 35.11 LIG 0.16  HD
BRANCH 67 70
ATOM     70  CA  THR F 165       3.684  23.444  37.419  1.00 44.00 LIG 0.20  C 
BRANCH 70 71
ATOM     71  CB  THR F 165       3.059  24.125  36.197  1.00 46.85 LIG 0.15  C 
ATOM     72  CG2 THR F 165       2.839  25.614  36.470  1.00 37.95 LIG 0.04  C 
BRANCH 71 73
ATOM     73 OG1  THR F 165       3.916  23.951  35.060  1.00 45.14 LIG-0.39  OA
ATOM     74 HG1  THR F 165       4.664  23.667  35.314  1.00 45.14 LIG 0.21  HD
ENDBRANCH 71 73
ENDBRANCH 70 71
BRANCH 70 75
ATOM     75  N   THR F 165       5.138  23.425  37.307  1.00 38.01 LIG-0.34  N 
ATOM     76 H    THR F 165       5.428  23.430  36.498  1.00 38.01 LIG 0.16  HD
ATOM     77  C   THR F 164       5.932  23.404  38.378  1.00 57.69 LIG 0.26  C 
ATOM     78 O    THR F 164       5.497  23.399  39.535  1.00 49.67 LIG-0.27  OA
BRANCH 77 79
ATOM     79  CA  THR F 164       7.439  23.380  38.103  1.00 56.73 LIG 0.43  C 
ATOM     80  N   THR F 164       8.164  22.803  39.233  1.00 65.32 LIG 0.62  N 
BRANCH 79 81
ATOM     81  CB  THR F 164       7.719  22.603  36.789  1.00 58.05 LIG 0.16  C 
ATOM     82  CG2 THR F 164       7.251  21.155  36.918  1.00 51.52 LIG 0.04  C 
BRANCH 81 83
ATOM     83 OG1  THR F 164       7.036  23.227  35.693  1.00 58.15 LIG-0.39  OA
ATOM     84 HG1  THR F 164       7.032  22.708  35.033  1.00 58.15 LIG 0.21  HD
ENDBRANCH 81 83
ENDBRANCH 79 81
ENDBRANCH 77 79
ENDBRANCH 70 75
ENDBRANCH 67 70
ENDBRANCH 58 66
ENDBRANCH 56 58
ENDBRANCH 1 54
TORSDOF 35
ENDMDL
