MODEL 1
USER: ADFR SOLUTION from run 101
USER: SCORE 18.551872 LL:  -2.881 LR: -17.850 RR:   0.000 FEB: -12.779
USER: RMSD 0.736090
USER: SEED 100
USER: STATUS 1 or 2 clusters left
USER: GENES 19
USER: genes 0 Translation |==|  0.49608 0.48493 0.52038
USER: genes 1 Rotation |==|  0.45689 0.53476 0.49489 0.99690
USER: genes 2 Torsion [C]-CA--CB-[CG] |==|  0.51084
USER: genes 3 Torsion [CA]-CB--CG-[CD] |==|  0.41326
USER: genes 4 Torsion [CB]-CG--CD-[NE] |==|  0.36551
USER: genes 5 Torsion [CG]-CD--NE-[CZ] |==|  0.34308
USER: genes 6 Torsion [N]-CA--C-[N] |==|  0.50807
USER: genes 7 Torsion [C]-N--CA-[C] |==|  0.40672
USER: genes 8 Torsion [N]-CA--C-[N] |==|  0.46111
USER: genes 9 Torsion [C]-N--CA-[CB] |==|  0.28286
USER: genes 10 Torsion [N]-CA--C-[O] |==|  0.84278
USER: genes 11 Torsion [CB]-CA--N-[C] |==|  0.35549
USER: genes 12 Torsion [N]-C--CA-[N] |==|  0.32968
USER: genes 13 Torsion [N]-C--CA-[N] |==|  0.30099
USER: genes 14 Torsion [C]-CA--N-[C] |==|  0.75112
USER: genes 15 Torsion [N]-C--CA-[N] |==|  0.53718
USER: genes 16 Torsion [C]-CA--CB-[CG] |==|  0.17538
USER: genes 17 Torsion [CA]-CB--CG-[SD] |==|  0.50973
USER: genes 18 Torsion [CB]-CG--SD-[CE] |==|  0.22506
ROOT
ATOM      1  CA  ARG C  85     120.898  42.825  -8.237  1.00 24.81 LIG 0.18  C 
ENDROOT
BRANCH 1 2
ATOM      2  CB  ARG C  85     120.056  41.717  -7.600  1.00 26.62 LIG 0.04  C 
BRANCH 2 3
ATOM      3  CG  ARG C  85     118.825  42.177  -6.864  1.00 27.35 LIG 0.02  C 
BRANCH 3 4
ATOM      4  CD  ARG C  85     117.755  41.069  -6.988  1.00 30.83 LIG 0.14  C 
BRANCH 4 5
ATOM      5  NE  ARG C  85     117.142  40.733  -5.709  1.00 23.70 LIG-0.23  N 
ATOM      6 HE   ARG C  85     117.659  40.484  -5.067  1.00 23.70 LIG 0.18  HD
ATOM      7  CZ  ARG C  85     115.835  40.785  -5.470  1.00 30.65 LIG 0.67  C 
ATOM      8  NH1 ARG C  85     114.993  41.190  -6.419  1.00 24.79 LIG-0.23  N 
ATOM      9  NH2 ARG C  85     115.373  40.453  -4.269  1.00 28.31 LIG-0.23  N 
ATOM     10 2HH1 ARG C  85     114.148  41.222  -6.259  1.00 24.79 LIG 0.17  HD
ATOM     11 1HH1 ARG C  85     115.294  41.419  -7.192  1.00 24.79 LIG 0.17  HD
ATOM     12 1HH2 ARG C  85     115.919  40.205  -3.652  1.00 28.31 LIG 0.17  HD
ATOM     13 2HH2 ARG C  85     114.529  40.484  -4.109  1.00 28.31 LIG 0.17  HD
ENDBRANCH 4 5
ENDBRANCH 3 4
ENDBRANCH 2 3
ENDBRANCH 1 2
BRANCH 1 14
ATOM     14  C   ARG C  85     122.028  42.177  -9.007  1.00 23.94 LIG 0.24  C 
ATOM     15  N   GLY C  86     122.804  41.345  -8.332  1.00 22.55 LIG-0.35  N 
ATOM     16 H    GLY C  86     122.768  41.200  -7.485  1.00 22.55 LIG 0.16  HD
ATOM     17 O    ARG C  85     122.185  42.407 -10.205  1.00 20.62 LIG-0.27  OA
BRANCH 15 18
ATOM     18  CA  GLY C  86     123.808  40.603  -9.061  1.00 30.25 LIG 0.23  C 
BRANCH 18 19
ATOM     19  C   GLY C  86     125.051  40.369  -8.242  1.00 23.49 LIG 0.24  C 
ATOM     20 O    GLY C  86     125.283  41.019  -7.210  1.00 21.63 LIG-0.27  OA
ATOM     21  N   ALA C  87     125.871  39.457  -8.749  1.00 19.98 LIG-0.35  N 
ATOM     22 H    ALA C  87     125.682  38.993  -9.448  1.00 19.98 LIG 0.16  HD
BRANCH 21 23
ATOM     23  CA  ALA C  87     127.169  39.146  -8.179  1.00 25.46 LIG 0.18  C 
ATOM     24  CB  ALA C  87     127.097  37.858  -7.375  1.00 28.24 LIG 0.04  C 
BRANCH 23 25
ATOM     25  C   ALA C  87     128.241  39.034  -9.283  1.00 31.90 LIG 0.20  C 
ATOM     26 O    ALA C  87     128.119  38.239 -10.236  1.00 29.46 LIG-0.65  OA
ATOM     27 OXT  ALA C  87     129.262  39.733  -9.244  1.00 32.87 LIG-0.65  OA
ENDBRANCH 23 25
ENDBRANCH 21 23
ENDBRANCH 18 19
ENDBRANCH 15 18
ENDBRANCH 1 14
BRANCH 1 28
ATOM     28  N   ARG C  85     120.130  43.640  -9.159  1.00 18.65 LIG-0.35  N 
ATOM     29  C   PRO C  84     120.088  44.956  -9.093  1.00 20.35 LIG 0.24  C 
ATOM     30 O    PRO C  84     120.671  45.588  -8.215  1.00 17.99 LIG-0.27  OA
ATOM     31 H    ARG C  85     119.706  43.184  -9.752  1.00 18.65 LIG 0.16  HD
BRANCH 29 32
ATOM     32  CA  PRO C  84     119.271  45.647 -10.191  1.00 19.37 LIG 0.18  C 
ATOM     33  N   PRO C  84     118.145  46.411  -9.634  1.00 20.85 LIG-0.34  N 
ATOM     34  CD  PRO C  84     118.308  47.871  -9.805  1.00 20.85 LIG 0.13  C 
ATOM     35  C   MET C  83     117.127  45.758  -9.068  1.00 22.34 LIG 0.24  C 
ATOM     36  CG  PRO C  84     119.742  48.013 -10.280  1.00 19.31 LIG 0.02  C 
ATOM     37  CB  PRO C  84     120.099  46.710 -10.937  1.00 19.29 LIG 0.04  C 
ATOM     38 O    MET C  83     117.089  44.518  -9.050  1.00 21.27 LIG-0.27  OA
BRANCH 35 39
ATOM     39  CA  MET C  83     115.989  46.525  -8.430  1.00 20.32 LIG 0.18  C 
BRANCH 39 40
ATOM     40  N   MET C  83     114.814  46.385  -9.276  1.00 21.66 LIG-0.35  N 
ATOM     41  C   GLY C  82     114.536  47.230 -10.271  1.00 33.13 LIG 0.25  C 
ATOM     42 O    GLY C  82     115.220  48.238 -10.525  1.00 25.06 LIG-0.27  OA
ATOM     43 H    MET C  83     114.320  45.710  -9.076  1.00 21.66 LIG 0.16  HD
BRANCH 41 44
ATOM     44  CA  GLY C  82     113.302  46.878 -11.089  1.00 30.04 LIG 0.47  C 
ATOM     45  N   GLY C  82     113.175  47.608 -12.336  1.00 27.71 LIG 0.61  N 
ENDBRANCH 41 44
ENDBRANCH 39 40
BRANCH 39 46
ATOM     46  CB  MET C  83     115.710  45.974  -7.028  1.00 20.93 LIG 0.04  C 
BRANCH 46 47
ATOM     47  CG  MET C  83     116.863  46.133  -6.049  1.00 22.56 LIG 0.08  C 
BRANCH 47 48
ATOM     48 SD   MET C  83     116.497  45.369  -4.448  1.00 24.19 LIG-0.17  SA
ATOM     49  CE  MET C  83     116.866  43.644  -4.810  1.00 17.13 LIG 0.09  C 
ENDBRANCH 47 48
ENDBRANCH 46 47
ENDBRANCH 39 46
ENDBRANCH 35 39
ENDBRANCH 29 32
ENDBRANCH 1 28
TORSDOF 17
ENDMDL
MODEL 2
USER: ADFR SOLUTION from run 109
USER: SCORE 18.737517 LL:  -3.097 LR: -17.132 RR:   0.000 FEB: -12.061
USER: RMSD 1.835539
USER: SEED 108
USER: STATUS no improvement in best in 3 clusters for 5 generations
USER: GENES 19
USER: genes 0 Translation |==|  0.52285 0.51280 0.49327
USER: genes 1 Rotation |==|  0.41189 0.53583 0.45760 0.98904
USER: genes 2 Torsion [C]-CA--CB-[CG] |==|  0.78065
USER: genes 3 Torsion [CA]-CB--CG-[CD] |==|  0.32496
USER: genes 4 Torsion [CB]-CG--CD-[NE] |==|  0.10548
USER: genes 5 Torsion [CG]-CD--NE-[CZ] |==|  0.24755
USER: genes 6 Torsion [N]-CA--C-[N] |==|  0.54626
USER: genes 7 Torsion [C]-N--CA-[C] |==|  0.35709
USER: genes 8 Torsion [N]-CA--C-[N] |==|  0.50214
USER: genes 9 Torsion [C]-N--CA-[CB] |==|  0.28019
USER: genes 10 Torsion [N]-CA--C-[O] |==|  0.90784
USER: genes 11 Torsion [CB]-CA--N-[C] |==|  0.21660
USER: genes 12 Torsion [N]-C--CA-[N] |==|  0.44145
USER: genes 13 Torsion [N]-C--CA-[N] |==|  0.35219
USER: genes 14 Torsion [C]-CA--N-[C] |==|  0.63539
USER: genes 15 Torsion [N]-C--CA-[N] |==|  0.57009
USER: genes 16 Torsion [C]-CA--CB-[CG] |==|  0.15048
USER: genes 17 Torsion [CA]-CB--CG-[SD] |==|  0.14606
USER: genes 18 Torsion [CB]-CG--SD-[CE] |==|  0.30751
ROOT
ATOM      1  CA  ARG C  85     121.581  43.348  -8.684  1.00 24.81 LIG 0.18  C 
ENDROOT
BRANCH 1 2
ATOM      2  CB  ARG C  85     120.601  42.505  -7.863  1.00 26.62 LIG 0.04  C 
BRANCH 2 3
ATOM      3  CG  ARG C  85     119.540  41.786  -8.654  1.00 27.35 LIG 0.02  C 
BRANCH 3 4
ATOM      4  CD  ARG C  85     119.749  40.268  -8.459  1.00 30.83 LIG 0.14  C 
BRANCH 4 5
ATOM      5  NE  ARG C  85     120.154  39.925  -7.102  1.00 23.70 LIG-0.23  N 
ATOM      6 HE   ARG C  85     120.996  39.893  -6.928  1.00 23.70 LIG 0.18  HD
ATOM      7  CZ  ARG C  85     119.304  39.658  -6.114  1.00 30.65 LIG 0.67  C 
ATOM      8  NH1 ARG C  85     117.990  39.720  -6.320  1.00 24.79 LIG-0.23  N 
ATOM      9  NH2 ARG C  85     119.774  39.349  -4.909  1.00 28.31 LIG-0.23  N 
ATOM     10 2HH1 ARG C  85     117.445  39.546  -5.678  1.00 24.79 LIG 0.17  HD
ATOM     11 1HH1 ARG C  85     117.686  39.934  -7.096  1.00 24.79 LIG 0.17  HD
ATOM     12 1HH2 ARG C  85     120.623  39.324  -4.772  1.00 28.31 LIG 0.17  HD
ATOM     13 2HH2 ARG C  85     119.229  39.176  -4.267  1.00 28.31 LIG 0.17  HD
ENDBRANCH 4 5
ENDBRANCH 3 4
ENDBRANCH 2 3
ENDBRANCH 1 2
BRANCH 1 14
ATOM     14  C   ARG C  85     122.606  42.418  -9.297  1.00 23.94 LIG 0.24  C 
ATOM     15  N   GLY C  86     123.062  41.447  -8.523  1.00 22.55 LIG-0.35  N 
ATOM     16 H    GLY C  86     122.885  41.346  -7.687  1.00 22.55 LIG 0.16  HD
ATOM     17 O    ARG C  85     122.964  42.561 -10.465  1.00 20.62 LIG-0.27  OA
BRANCH 15 18
ATOM     18  CA  GLY C  86     123.938  40.458  -9.111  1.00 30.25 LIG 0.23  C 
BRANCH 18 19
ATOM     19  C   GLY C  86     125.206  40.276  -8.318  1.00 23.49 LIG 0.24  C 
ATOM     20 O    GLY C  86     125.437  40.943  -7.297  1.00 21.63 LIG-0.27  OA
ATOM     21  N   ALA C  87     126.045  39.387  -8.835  1.00 19.98 LIG-0.35  N 
ATOM     22 H    ALA C  87     125.857  38.910  -9.525  1.00 19.98 LIG 0.16  HD
BRANCH 21 23
ATOM     23  CA  ALA C  87     127.365  39.126  -8.291  1.00 25.46 LIG 0.18  C 
ATOM     24  CB  ALA C  87     127.349  37.857  -7.454  1.00 28.24 LIG 0.04  C 
BRANCH 23 25
ATOM     25  C   ALA C  87     128.412  39.016  -9.419  1.00 31.90 LIG 0.20  C 
ATOM     26 O    ALA C  87     128.123  38.545 -10.536  1.00 29.46 LIG-0.65  OA
ATOM     27 OXT  ALA C  87     129.578  39.390  -9.235  1.00 32.87 LIG-0.65  OA
ENDBRANCH 23 25
ENDBRANCH 21 23
ENDBRANCH 18 19
ENDBRANCH 15 18
ENDBRANCH 1 14
BRANCH 1 28
ATOM     28  N   ARG C  85     120.923  44.067  -9.758  1.00 18.65 LIG-0.35  N 
ATOM     29  C   PRO C  84     120.229  45.172  -9.564  1.00 20.35 LIG 0.24  C 
ATOM     30 O    PRO C  84     120.059  45.653  -8.447  1.00 17.99 LIG-0.27  OA
ATOM     31 H    ARG C  85     121.027  43.707 -10.531  1.00 18.65 LIG 0.16  HD
BRANCH 29 32
ATOM     32  CA  PRO C  84     119.657  45.823 -10.829  1.00 19.37 LIG 0.18  C 
ATOM     33  N   PRO C  84     118.527  46.713 -10.521  1.00 20.85 LIG-0.34  N 
ATOM     34  CD  PRO C  84     118.841  48.137 -10.770  1.00 20.85 LIG 0.13  C 
ATOM     35  C   MET C  83     117.381  46.188 -10.082  1.00 22.34 LIG 0.24  C 
ATOM     36  CG  PRO C  84     120.339  48.132 -11.015  1.00 19.31 LIG 0.02  C 
ATOM     37  CB  PRO C  84     120.681  46.753 -11.506  1.00 19.29 LIG 0.04  C 
ATOM     38 O    MET C  83     117.234  44.961  -9.979  1.00 21.27 LIG-0.27  OA
BRANCH 35 39
ATOM     39  CA  MET C  83     116.228  47.090  -9.697  1.00 20.32 LIG 0.18  C 
BRANCH 39 40
ATOM     40  N   MET C  83     115.047  46.657 -10.427  1.00 21.66 LIG-0.35  N 
ATOM     41  C   GLY C  82     114.264  47.501 -11.100  1.00 33.13 LIG 0.25  C 
ATOM     42 O    GLY C  82     114.439  48.734 -11.115  1.00 25.06 LIG-0.27  OA
ATOM     43 H    MET C  83     114.903  45.809 -10.385  1.00 21.66 LIG 0.16  HD
BRANCH 41 44
ATOM     44  CA  GLY C  82     113.116  46.851 -11.859  1.00 30.04 LIG 0.47  C 
ATOM     45  N   GLY C  82     112.638  47.611 -12.998  1.00 27.71 LIG 0.61  N 
ENDBRANCH 41 44
ENDBRANCH 39 40
BRANCH 39 46
ATOM     46  CB  MET C  83     115.985  47.009  -8.187  1.00 20.93 LIG 0.04  C 
BRANCH 46 47
ATOM     47  CG  MET C  83     117.212  47.296  -7.335  1.00 22.56 LIG 0.08  C 
BRANCH 47 48
ATOM     48 SD   MET C  83     117.994  48.866  -7.785  1.00 24.19 LIG-0.17  SA
ATOM     49  CE  MET C  83     117.623  49.853  -6.324  1.00 17.13 LIG 0.09  C 
ENDBRANCH 47 48
ENDBRANCH 46 47
ENDBRANCH 39 46
ENDBRANCH 35 39
ENDBRANCH 29 32
ENDBRANCH 1 28
TORSDOF 17
ENDMDL
MODEL 3
USER: ADFR SOLUTION from run 155
USER: SCORE 17.850201 LL:  -2.822 LR: -16.807 RR:   0.000 FEB: -11.736
USER: RMSD 2.549969
USER: SEED 154
USER: STATUS no improvement in best in 2 clusters for 5 generations
USER: GENES 19
USER: genes 0 Translation |==|  0.48861 0.47539 0.53316
USER: genes 1 Rotation |==|  0.55676 0.49922 0.51818 0.99643
USER: genes 2 Torsion [C]-CA--CB-[CG] |==|  0.37723
USER: genes 3 Torsion [CA]-CB--CG-[CD] |==|  0.31362
USER: genes 4 Torsion [CB]-CG--CD-[NE] |==|  0.50361
USER: genes 5 Torsion [CG]-CD--NE-[CZ] |==|  0.49086
USER: genes 6 Torsion [N]-CA--C-[N] |==|  0.47925
USER: genes 7 Torsion [C]-N--CA-[C] |==|  0.43318
USER: genes 8 Torsion [N]-CA--C-[N] |==|  0.41137
USER: genes 9 Torsion [C]-N--CA-[CB] |==|  0.26980
USER: genes 10 Torsion [N]-CA--C-[O] |==|  0.83858
USER: genes 11 Torsion [CB]-CA--N-[C] |==|  0.19369
USER: genes 12 Torsion [N]-C--CA-[N] |==|  0.38927
USER: genes 13 Torsion [N]-C--CA-[N] |==|  0.25020
USER: genes 14 Torsion [C]-CA--N-[C] |==|  0.64939
USER: genes 15 Torsion [N]-C--CA-[N] |==|  0.74971
USER: genes 16 Torsion [C]-CA--CB-[CG] |==|  0.72499
USER: genes 17 Torsion [CA]-CB--CG-[SD] |==|  0.76434
USER: genes 18 Torsion [CB]-CG--SD-[CE] |==|  0.88286
ROOT
ATOM      1  CA  ARG C  85     120.708  42.647  -8.026  1.00 24.81 LIG 0.18  C 
ENDROOT
BRANCH 1 2
ATOM      2  CB  ARG C  85     119.914  41.337  -8.001  1.00 26.62 LIG 0.04  C 
BRANCH 2 3
ATOM      3  CG  ARG C  85     119.323  40.960  -6.668  1.00 27.35 LIG 0.02  C 
BRANCH 3 4
ATOM      4  CD  ARG C  85     117.786  41.046  -6.788  1.00 30.83 LIG 0.14  C 
BRANCH 4 5
ATOM      5  NE  ARG C  85     117.105  40.728  -5.539  1.00 23.70 LIG-0.23  N 
ATOM      6 HE   ARG C  85     117.586  40.483  -4.869  1.00 23.70 LIG 0.18  HD
ATOM      7  CZ  ARG C  85     115.788  40.793  -5.369  1.00 30.65 LIG 0.67  C 
ATOM      8  NH1 ARG C  85     114.999  41.193  -6.364  1.00 24.79 LIG-0.23  N 
ATOM      9  NH2 ARG C  85     115.262  40.477  -4.189  1.00 28.31 LIG-0.23  N 
ATOM     10 2HH1 ARG C  85     114.148  41.233  -6.249  1.00 24.79 LIG 0.17  HD
ATOM     11 1HH1 ARG C  85     115.341  41.412  -7.123  1.00 24.79 LIG 0.17  HD
ATOM     12 1HH2 ARG C  85     115.773  40.233  -3.542  1.00 28.31 LIG 0.17  HD
ATOM     13 2HH2 ARG C  85     114.410  40.517  -4.074  1.00 28.31 LIG 0.17  HD
ENDBRANCH 4 5
ENDBRANCH 3 4
ENDBRANCH 2 3
ENDBRANCH 1 2
BRANCH 1 14
ATOM     14  C   ARG C  85     121.982  42.413  -8.808  1.00 23.94 LIG 0.24  C 
ATOM     15  N   GLY C  86     122.853  41.567  -8.283  1.00 22.55 LIG-0.35  N 
ATOM     16 H    GLY C  86     122.792  41.201  -7.507  1.00 22.55 LIG 0.16  HD
ATOM     17 O    ARG C  85     122.167  42.972  -9.889  1.00 20.62 LIG-0.27  OA
BRANCH 15 18
ATOM     18  CA  GLY C  86     124.018  41.213  -9.063  1.00 30.25 LIG 0.23  C 
BRANCH 18 19
ATOM     19  C   GLY C  86     125.163  40.752  -8.199  1.00 23.49 LIG 0.24  C 
ATOM     20 O    GLY C  86     125.364  41.232  -7.073  1.00 21.63 LIG-0.27  OA
ATOM     21  N   ALA C  87     125.940  39.840  -8.771  1.00 19.98 LIG-0.35  N 
ATOM     22 H    ALA C  87     125.770  39.494  -9.540  1.00 19.98 LIG 0.16  HD
BRANCH 21 23
ATOM     23  CA  ALA C  87     127.154  39.331  -8.161  1.00 25.46 LIG 0.18  C 
ATOM     24  CB  ALA C  87     126.876  38.014  -7.452  1.00 28.24 LIG 0.04  C 
BRANCH 23 25
ATOM     25  C   ALA C  87     128.266  39.152  -9.215  1.00 31.90 LIG 0.20  C 
ATOM     26 O    ALA C  87     128.112  38.418 -10.211  1.00 29.46 LIG-0.65  OA
ATOM     27 OXT  ALA C  87     129.352  39.733  -9.090  1.00 32.87 LIG-0.65  OA
ENDBRANCH 23 25
ENDBRANCH 21 23
ENDBRANCH 18 19
ENDBRANCH 15 18
ENDBRANCH 1 14
BRANCH 1 28
ATOM     28  N   ARG C  85     119.975  43.723  -8.665  1.00 18.65 LIG-0.35  N 
ATOM     29  C   PRO C  84     118.908  44.284  -8.129  1.00 20.35 LIG 0.24  C 
ATOM     30 O    PRO C  84     118.435  43.907  -7.060  1.00 17.99 LIG-0.27  OA
ATOM     31 H    ARG C  85     120.300  43.960  -9.424  1.00 18.65 LIG 0.16  HD
BRANCH 29 32
ATOM     32  CA  PRO C  84     118.304  45.447  -8.924  1.00 19.37 LIG 0.18  C 
ATOM     33  N   PRO C  84     116.834  45.413  -8.907  1.00 20.85 LIG-0.34  N 
ATOM     34  CD  PRO C  84     116.247  46.540  -8.150  1.00 20.85 LIG 0.13  C 
ATOM     35  C   MET C  83     116.194  44.434  -9.550  1.00 22.34 LIG 0.24  C 
ATOM     36  CG  PRO C  84     117.446  47.163  -7.457  1.00 19.31 LIG 0.02  C 
ATOM     37  CB  PRO C  84     118.645  46.810  -8.292  1.00 19.29 LIG 0.04  C 
ATOM     38 O    MET C  83     116.815  43.582 -10.205  1.00 21.27 LIG-0.27  OA
BRANCH 35 39
ATOM     39  CA  MET C  83     114.684  44.342  -9.492  1.00 20.32 LIG 0.18  C 
BRANCH 39 40
ATOM     40  N   MET C  83     114.138  45.111 -10.599  1.00 21.66 LIG-0.35  N 
ATOM     41  C   GLY C  82     113.229  46.073 -10.432  1.00 33.13 LIG 0.25  C 
ATOM     42 O    GLY C  82     112.727  46.356  -9.328  1.00 25.06 LIG-0.27  OA
ATOM     43 H    MET C  83     114.456  44.889 -11.368  1.00 21.66 LIG 0.16  HD
BRANCH 41 44
ATOM     44  CA  GLY C  82     112.830  46.812 -11.700  1.00 30.04 LIG 0.47  C 
ATOM     45  N   GLY C  82     113.635  47.983 -11.995  1.00 27.71 LIG 0.61  N 
ENDBRANCH 41 44
ENDBRANCH 39 40
BRANCH 39 46
ATOM     46  CB  MET C  83     114.247  42.877  -9.588  1.00 20.93 LIG 0.04  C 
BRANCH 46 47
ATOM     47  CG  MET C  83     113.801  42.443 -10.976  1.00 22.56 LIG 0.08  C 
BRANCH 47 48
ATOM     48 SD   MET C  83     112.059  42.835 -11.278  1.00 24.19 LIG-0.17  SA
ATOM     49  CE  MET C  83     111.333  42.363  -9.698  1.00 17.13 LIG 0.09  C 
ENDBRANCH 47 48
ENDBRANCH 46 47
ENDBRANCH 39 46
ENDBRANCH 35 39
ENDBRANCH 29 32
ENDBRANCH 1 28
TORSDOF 17
ENDMDL
