MODEL 1
USER: ADFR SOLUTION from run 132
USER: SCORE 21.212748 LL:  -4.861 LR: -17.230 RR:   0.000 FEB:  -9.176
USER: RMSD 2.717332
USER: SEED 131
USER: STATUS searching
USER: GENES 29
USER: genes 0 Translation |==|  0.55251 0.45011 0.53365
USER: genes 1 Rotation |==|  0.50489 0.51388 0.49712 0.99977
USER: genes 2 Torsion [C]-N--CA-[C] |==|  0.70013
USER: genes 3 Torsion [N]-CA--C-[N] |==|  0.30728
USER: genes 4 Torsion [C]-N--CA-[C] |==|  0.68383
USER: genes 5 Torsion [N]-CA--C-[N] |==|  0.23315
USER: genes 6 Torsion [C]-N--CA-[CB] |==|  0.42494
USER: genes 7 Torsion [N]-CA--CB-[CG] |==|  0.69886
USER: genes 8 Torsion [CA]-CB--CG-[CD2] |==|  0.36719
USER: genes 9 Torsion [N]-CA--C-[O] |==|  0.12940
USER: genes 10 Torsion [N]-CA--CB-[CG] |==|  0.62153
USER: genes 11 Torsion [CA]-CB--CG-[CD] |==|  0.30861
USER: genes 12 Torsion [CB]-CG--CD-[CE] |==|  0.38027
USER: genes 13 Torsion [CG]-CD--CE-[NZ] |==|  0.82441
USER: genes 14 Torsion [CD]-CE--NZ-[HZ2] |==|  0.14041
USER: genes 15 Torsion [N]-CA--CB-[CG2] |==|  0.59372
USER: genes 16 Torsion [CA]-CB--OG1-[HG1] |==|  0.50367
USER: genes 17 Torsion [N]-C--CA-[N] |==|  0.45619
USER: genes 18 Torsion [C]-CA--N-[C] |==|  0.54707
USER: genes 19 Torsion [N]-C--CA-[N] |==|  0.36114
USER: genes 20 Torsion [C]-CA--CB-[CG] |==|  0.19278
USER: genes 21 Torsion [CA]-CB--CG-[CD] |==|  0.32252
USER: genes 22 Torsion [CB]-CG--CD-[OE2] |==|  0.54096
USER: genes 23 Torsion [C]-CA--N-[C] |==|  0.78287
USER: genes 24 Torsion [N]-C--CA-[N] |==|  0.39453
USER: genes 25 Torsion [C]-CA--CB-[CG2] |==|  0.00228
USER: genes 26 Torsion [C]-CA--CB-[CG] |==|  0.84339
USER: genes 27 Torsion [CA]-CB--CG-[CD1] |==|  0.24934
USER: genes 28 Torsion [CE1]-CZ--OH-[HH] |==|  0.02316
ROOT
ATOM      1  C   TYR F 311      37.465  51.139  -2.654  1.00 39.57 LIG 0.24  C 
ATOM      2 O    TYR F 311      37.474  50.096  -3.313  1.00 35.87 LIG-0.27  OA
ATOM      3  N   THR F 312      36.712  51.323  -1.571  1.00 39.28 LIG-0.34  N 
ATOM      4 H    THR F 312      36.742  52.039  -1.096  1.00 39.28 LIG 0.16  HD
ENDROOT
BRANCH 3 5
ATOM      5  CA  THR F 312      35.759  50.337  -1.078  1.00 41.67 LIG 0.20  C 
BRANCH 5 6
ATOM      6  C   THR F 312      34.330  50.791  -1.333  1.00 45.40 LIG 0.24  C 
ATOM      7  N   LYS F 313      33.657  50.103  -2.241  1.00 48.10 LIG-0.35  N 
ATOM      8 H    LYS F 313      34.005  49.488  -2.730  1.00 48.10 LIG 0.16  HD
ATOM      9 O    THR F 312      33.834  51.719  -0.699  1.00 48.99 LIG-0.27  OA
BRANCH 7 10
ATOM     10  CA  LYS F 313      32.243  50.338  -2.493  1.00 51.61 LIG 0.18  C 
BRANCH 10 11
ATOM     11  C   LYS F 313      31.436  49.102  -2.077  1.00 54.92 LIG 0.24  C 
ATOM     12 O    LYS F 313      31.127  48.243  -2.910  1.00 54.36 LIG-0.27  OA
ATOM     13  N   HIS F 314      31.117  49.028  -0.780  1.00 57.06 LIG-0.35  N 
ATOM     14 H    HIS F 314      31.329  49.641  -0.215  1.00 57.06 LIG 0.16  HD
BRANCH 13 15
ATOM     15  CA  HIS F 314      30.379  47.909  -0.174  1.00 57.78 LIG 0.17  C 
BRANCH 15 16
ATOM     16  CB  HIS F 314      30.729  47.754   1.314  1.00 57.79 LIG 0.09  C 
BRANCH 16 17
ATOM     17  CG  HIS F 314      31.565  46.549   1.619  1.00 61.61 LIG 0.06  A 
ATOM     18  CD2 HIS F 314      32.691  46.406   2.360  1.00 62.97 LIG 0.14  A 
ATOM     19 NE2  HIS F 314      33.046  45.079   2.309  1.00 63.36 LIG-0.25  NA
ATOM     20  CE1 HIS F 314      32.169  44.426   1.567  1.00 61.50 LIG 0.23  A 
ATOM     21 ND1  HIS F 314      31.265  45.289   1.137  1.00 63.00 LIG-0.24  NA
ENDBRANCH 16 17
ENDBRANCH 15 16
BRANCH 15 22
ATOM     22  C   HIS F 314      28.862  48.044  -0.355  1.00 59.91 LIG 0.22  C 
ATOM     23 O    HIS F 314      28.375  48.337  -1.452  1.00 59.00 LIG-0.29  OA
ENDBRANCH 15 22
ENDBRANCH 13 15
ENDBRANCH 10 11
BRANCH 10 24
ATOM     24  CB  LYS F 313      32.006  50.689  -3.966  1.00 49.70 LIG 0.04  C 
BRANCH 24 25
ATOM     25  CG  LYS F 313      31.042  51.851  -4.158  1.00 49.89 LIG 0.00  C 
BRANCH 25 26
ATOM     26  CD  LYS F 313      31.733  53.095  -4.694  1.00 49.58 LIG 0.03  C 
BRANCH 26 27
ATOM     27  CE  LYS F 313      30.901  53.753  -5.786  1.00 48.23 LIG 0.23  C 
BRANCH 27 28
ATOM     28  NZ  LYS F 313      30.744  52.862  -6.960  1.00 47.83 LIG-0.08  N 
ATOM     29 HZ2  LYS F 313      30.465  52.061  -6.690  1.00 47.83 LIG 0.27  HD
ATOM     30 HZ1  LYS F 313      31.526  52.779  -7.376  1.00 47.83 LIG 0.27  HD
ATOM     31 HZ3  LYS F 313      30.146  53.211  -7.521  1.00 47.83 LIG 0.27  HD
ENDBRANCH 27 28
ENDBRANCH 26 27
ENDBRANCH 25 26
ENDBRANCH 24 25
ENDBRANCH 10 24
ENDBRANCH 7 10
ENDBRANCH 5 6
BRANCH 5 32
ATOM     32  CB  THR F 312      35.893  50.148   0.443  1.00 41.09 LIG 0.15  C 
ATOM     33  CG2 THR F 312      35.605  48.713   0.846  1.00 40.88 LIG 0.04  C 
BRANCH 32 34
ATOM     34 OG1  THR F 312      37.225  50.496   0.838  1.00 43.07 LIG-0.39  OA
ATOM     35 HG1  THR F 312      37.312  50.378   1.666  1.00 43.07 LIG 0.21  HD
ENDBRANCH 32 34
ENDBRANCH 5 32
ENDBRANCH 3 5
BRANCH 1 36
ATOM     36  CA  TYR F 311      38.322  52.340  -3.061  1.00 39.31 LIG 0.18  C 
BRANCH 36 37
ATOM     37  N   TYR F 311      39.384  51.991  -4.004  1.00 40.62 LIG-0.35  N 
ATOM     38 H    TYR F 311      39.278  51.233  -4.397  1.00 40.62 LIG 0.16  HD
ATOM     39  C   GLU F 310      40.416  52.802  -4.213  1.00 41.86 LIG 0.24  C 
ATOM     40 O    GLU F 310      40.585  53.824  -3.564  1.00 41.90 LIG-0.27  OA
BRANCH 39 41
ATOM     41  CA  GLU F 310      41.425  52.397  -5.285  1.00 43.14 LIG 0.18  C 
BRANCH 41 42
ATOM     42  CB  GLU F 310      42.724  51.955  -4.606  1.00 44.06 LIG 0.04  C 
BRANCH 42 43
ATOM     43  CG  GLU F 310      42.605  50.643  -3.848  1.00 45.60 LIG 0.12  C 
BRANCH 43 44
ATOM     44  CD  GLU F 310      43.477  49.534  -4.419  1.00 46.85 LIG 0.17  C 
ATOM     45 OE2  GLU F 310      43.241  48.362  -4.051  1.00 47.09 LIG-0.65  OA
ATOM     46 OE1  GLU F 310      44.402  49.826  -5.215  1.00 45.53 LIG-0.65  OA
ENDBRANCH 43 44
ENDBRANCH 42 43
ENDBRANCH 41 42
BRANCH 41 47
ATOM     47  N   GLU F 310      41.681  53.515  -6.208  1.00 43.23 LIG-0.35  N 
ATOM     48  C   VAL F 309      40.844  53.862  -7.193  1.00 44.16 LIG 0.26  C 
ATOM     49 O    VAL F 309      39.800  53.257  -7.446  1.00 43.83 LIG-0.27  OA
ATOM     50 H    GLU F 310      42.421  53.925  -6.056  1.00 43.23 LIG 0.16  HD
BRANCH 48 51
ATOM     51  CA  VAL F 309      41.240  55.087  -8.027  1.00 44.86 LIG 0.40  C 
ATOM     52  N   VAL F 309      40.883  54.856  -9.459  1.00 44.58 LIG 0.61  N 
BRANCH 51 53
ATOM     53  CB  VAL F 309      40.565  56.384  -7.493  1.00 44.54 LIG 0.03  C 
ATOM     54  CG2 VAL F 309      39.712  56.070  -6.269  1.00 44.44 LIG 0.01  C 
ATOM     55  CG1 VAL F 309      39.729  57.087  -8.560  1.00 43.50 LIG 0.01  C 
ENDBRANCH 51 53
ENDBRANCH 48 51
ENDBRANCH 41 47
ENDBRANCH 39 41
ENDBRANCH 36 37
BRANCH 36 56
ATOM     56  CB  TYR F 311      37.415  53.408  -3.680  1.00 38.48 LIG 0.07  C 
BRANCH 56 57
ATOM     57  CG  TYR F 311      36.613  52.896  -4.856  1.00 36.48 LIG-0.06  A 
ATOM     58  CD1 TYR F 311      35.356  52.330  -4.670  1.00 35.51 LIG 0.01  A 
ATOM     59  CE1 TYR F 311      34.616  51.857  -5.741  1.00 35.35 LIG 0.04  A 
ATOM     60  CZ  TYR F 311      35.137  51.933  -7.013  1.00 34.90 LIG 0.07  A 
ATOM     61  CE2 TYR F 311      36.384  52.485  -7.231  1.00 36.46 LIG 0.04  A 
ATOM     62  CD2 TYR F 311      37.121  52.958  -6.155  1.00 36.25 LIG 0.01  A 
BRANCH 60 63
ATOM     63 OH   TYR F 311      34.410  51.458  -8.069  1.00 38.07 LIG-0.36  OA
ATOM     64 HH   TYR F 311      33.635  51.260  -7.810  1.00 38.07 LIG 0.22  HD
ENDBRANCH 60 63
ENDBRANCH 56 57
ENDBRANCH 36 56
ENDBRANCH 1 36
TORSDOF 27
ENDMDL
MODEL 2
USER: ADFR SOLUTION from run 20
USER: SCORE 20.807998 LL:  -4.693 LR: -16.932 RR:   0.000 FEB:  -8.878
USER: RMSD 3.267422
USER: SEED 19
USER: STATUS no improvement in best in 2 clusters for 5 generations
USER: GENES 29
USER: genes 0 Translation |==|  0.53978 0.44104 0.53762
USER: genes 1 Rotation |==|  0.50718 0.47538 0.46603 0.99818
USER: genes 2 Torsion [C]-N--CA-[C] |==|  0.70985
USER: genes 3 Torsion [N]-CA--C-[N] |==|  0.38589
USER: genes 4 Torsion [C]-N--CA-[C] |==|  0.52935
USER: genes 5 Torsion [N]-CA--C-[N] |==|  0.51064
USER: genes 6 Torsion [C]-N--CA-[CB] |==|  0.46405
USER: genes 7 Torsion [N]-CA--CB-[CG] |==|  0.35613
USER: genes 8 Torsion [CA]-CB--CG-[CD2] |==|  0.74268
USER: genes 9 Torsion [N]-CA--C-[O] |==|  0.05030
USER: genes 10 Torsion [N]-CA--CB-[CG] |==|  0.62939
USER: genes 11 Torsion [CA]-CB--CG-[CD] |==|  0.38570
USER: genes 12 Torsion [CB]-CG--CD-[CE] |==|  0.24206
USER: genes 13 Torsion [CG]-CD--CE-[NZ] |==|  0.89000
USER: genes 14 Torsion [CD]-CE--NZ-[HZ2] |==|  0.81168
USER: genes 15 Torsion [N]-CA--CB-[CG2] |==|  0.74050
USER: genes 16 Torsion [CA]-CB--OG1-[HG1] |==|  0.67756
USER: genes 17 Torsion [N]-C--CA-[N] |==|  0.46318
USER: genes 18 Torsion [C]-CA--N-[C] |==|  0.53917
USER: genes 19 Torsion [N]-C--CA-[N] |==|  0.35812
USER: genes 20 Torsion [C]-CA--CB-[CG] |==|  0.49018
USER: genes 21 Torsion [CA]-CB--CG-[CD] |==|  0.66749
USER: genes 22 Torsion [CB]-CG--CD-[OE2] |==|  0.54304
USER: genes 23 Torsion [C]-CA--N-[C] |==|  0.78094
USER: genes 24 Torsion [N]-C--CA-[N] |==|  0.38402
USER: genes 25 Torsion [C]-CA--CB-[CG2] |==|  0.13622
USER: genes 26 Torsion [C]-CA--CB-[CG] |==|  0.86011
USER: genes 27 Torsion [CA]-CB--CG-[CD1] |==|  0.24655
USER: genes 28 Torsion [CE1]-CZ--OH-[HH] |==|  0.92860
ROOT
ATOM      1  C   TYR F 311      37.112  50.962  -2.576  1.00 39.57 LIG 0.24  C 
ATOM      2 O    TYR F 311      37.091  49.924  -3.242  1.00 35.87 LIG-0.27  OA
ATOM      3  N   THR F 312      36.232  51.245  -1.618  1.00 39.28 LIG-0.34  N 
ATOM      4 H    THR F 312      36.279  51.954  -1.134  1.00 39.28 LIG 0.16  HD
ENDROOT
BRANCH 3 5
ATOM      5  CA  THR F 312      35.099  50.389  -1.290  1.00 41.67 LIG 0.20  C 
BRANCH 5 6
ATOM      6  C   THR F 312      33.803  50.976  -1.827  1.00 45.40 LIG 0.24  C 
ATOM      7  N   LYS F 313      32.955  50.114  -2.364  1.00 48.10 LIG-0.35  N 
ATOM      8 H    LYS F 313      33.134  49.282  -2.489  1.00 48.10 LIG 0.16  HD
ATOM      9 O    THR F 312      33.559  52.176  -1.728  1.00 48.99 LIG-0.27  OA
BRANCH 7 10
ATOM     10  CA  LYS F 313      31.624  50.511  -2.797  1.00 51.61 LIG 0.18  C 
BRANCH 10 11
ATOM     11  C   LYS F 313      30.797  49.261  -3.125  1.00 54.92 LIG 0.24  C 
ATOM     12 O    LYS F 313      31.259  48.132  -2.928  1.00 54.36 LIG-0.27  OA
ATOM     13  N   HIS F 314      29.573  49.489  -3.614  1.00 57.06 LIG-0.35  N 
ATOM     14 H    HIS F 314      29.271  50.281  -3.757  1.00 57.06 LIG 0.16  HD
BRANCH 13 15
ATOM     15  CA  HIS F 314      28.612  48.429  -3.958  1.00 57.78 LIG 0.17  C 
BRANCH 15 16
ATOM     16  CB  HIS F 314      27.206  49.007  -4.184  1.00 57.79 LIG 0.09  C 
BRANCH 16 17
ATOM     17  CG  HIS F 314      26.581  48.594  -5.482  1.00 61.61 LIG 0.06  A 
ATOM     18  CD2 HIS F 314      26.578  49.187  -6.700  1.00 62.97 LIG 0.14  A 
ATOM     19 NE2  HIS F 314      25.852  48.379  -7.544  1.00 63.36 LIG-0.25  NA
ATOM     20  CE1 HIS F 314      25.425  47.326  -6.870  1.00 61.50 LIG 0.23  A 
ATOM     21 ND1  HIS F 314      25.850  47.430  -5.622  1.00 63.00 LIG-0.24  NA
ENDBRANCH 16 17
ENDBRANCH 15 16
BRANCH 15 22
ATOM     22  C   HIS F 314      29.056  47.612  -5.177  1.00 59.91 LIG 0.22  C 
ATOM     23 O    HIS F 314      30.231  47.626  -5.560  1.00 59.00 LIG-0.29  OA
ENDBRANCH 15 22
ENDBRANCH 13 15
ENDBRANCH 10 11
BRANCH 10 24
ATOM     24  CB  LYS F 313      31.705  51.458  -4.000  1.00 49.70 LIG 0.04  C 
BRANCH 24 25
ATOM     25  CG  LYS F 313      30.811  52.682  -3.862  1.00 49.89 LIG 0.00  C 
BRANCH 25 26
ATOM     26  CD  LYS F 313      31.490  53.953  -4.345  1.00 49.58 LIG 0.03  C 
BRANCH 26 27
ATOM     27  CE  LYS F 313      31.282  54.147  -5.841  1.00 48.23 LIG 0.23  C 
BRANCH 27 28
ATOM     28  NZ  LYS F 313      31.380  52.862  -6.573  1.00 47.83 LIG-0.08  N 
ATOM     29 HZ2  LYS F 313      32.218  52.563  -6.538  1.00 47.83 LIG 0.27  HD
ATOM     30 HZ1  LYS F 313      31.144  52.986  -7.423  1.00 47.83 LIG 0.27  HD
ATOM     31 HZ3  LYS F 313      30.837  52.264  -6.199  1.00 47.83 LIG 0.27  HD
ENDBRANCH 27 28
ENDBRANCH 26 27
ENDBRANCH 25 26
ENDBRANCH 24 25
ENDBRANCH 10 24
ENDBRANCH 7 10
ENDBRANCH 5 6
BRANCH 5 32
ATOM     32  CB  THR F 312      34.923  50.262   0.234  1.00 41.09 LIG 0.15  C 
ATOM     33  CG2 THR F 312      35.647  49.040   0.771  1.00 40.88 LIG 0.04  C 
BRANCH 32 34
ATOM     34 OG1  THR F 312      35.446  51.438   0.861  1.00 43.07 LIG-0.39  OA
ATOM     35 HG1  THR F 312      36.101  51.231   1.344  1.00 43.07 LIG 0.21  HD
ENDBRANCH 32 34
ENDBRANCH 5 32
ENDBRANCH 3 5
BRANCH 1 36
ATOM     36  CA  TYR F 311      38.164  52.044  -2.832  1.00 39.31 LIG 0.18  C 
BRANCH 36 37
ATOM     37  N   TYR F 311      39.277  51.575  -3.657  1.00 40.62 LIG-0.35  N 
ATOM     38 H    TYR F 311      39.133  50.829  -4.060  1.00 40.62 LIG 0.16  HD
ATOM     39  C   GLU F 310      40.405  52.271  -3.755  1.00 41.86 LIG 0.24  C 
ATOM     40 O    GLU F 310      40.612  53.276  -3.090  1.00 41.90 LIG-0.27  OA
BRANCH 39 41
ATOM     41  CA  GLU F 310      41.474  51.751  -4.715  1.00 43.14 LIG 0.18  C 
BRANCH 41 42
ATOM     42  CB  GLU F 310      42.651  51.207  -3.901  1.00 44.06 LIG 0.04  C 
BRANCH 42 43
ATOM     43  CG  GLU F 310      43.746  50.581  -4.750  1.00 45.60 LIG 0.12  C 
BRANCH 43 44
ATOM     44  CD  GLU F 310      43.989  49.112  -4.435  1.00 46.85 LIG 0.17  C 
ATOM     45 OE2  GLU F 310      45.047  48.595  -4.857  1.00 47.09 LIG-0.65  OA
ATOM     46 OE1  GLU F 310      43.127  48.470  -3.788  1.00 45.53 LIG-0.65  OA
ENDBRANCH 43 44
ENDBRANCH 42 43
ENDBRANCH 41 42
BRANCH 41 47
ATOM     47  N   GLU F 310      41.923  52.820  -5.621  1.00 43.23 LIG-0.35  N 
ATOM     48  C   VAL F 309      41.231  53.212  -6.697  1.00 44.16 LIG 0.26  C 
ATOM     49 O    VAL F 309      40.172  52.691  -7.054  1.00 43.83 LIG-0.27  OA
ATOM     50 H    GLU F 310      42.675  53.170  -5.395  1.00 43.23 LIG 0.16  HD
BRANCH 48 51
ATOM     51  CA  VAL F 309      41.819  54.377  -7.502  1.00 44.86 LIG 0.40  C 
ATOM     52  N   VAL F 309      41.683  54.099  -8.963  1.00 44.58 LIG 0.61  N 
BRANCH 51 53
ATOM     53  CB  VAL F 309      41.138  55.727  -7.132  1.00 44.54 LIG 0.03  C 
ATOM     54  CG2 VAL F 309      41.097  55.901  -5.619  1.00 44.44 LIG 0.01  C 
ATOM     55  CG1 VAL F 309      39.735  55.851  -7.721  1.00 43.50 LIG 0.01  C 
ENDBRANCH 51 53
ENDBRANCH 48 51
ENDBRANCH 41 47
ENDBRANCH 39 41
ENDBRANCH 36 37
BRANCH 36 56
ATOM     56  CB  TYR F 311      37.490  53.241  -3.509  1.00 38.48 LIG 0.07  C 
BRANCH 56 57
ATOM     57  CG  TYR F 311      36.656  52.851  -4.709  1.00 36.48 LIG-0.06  A 
ATOM     58  CD1 TYR F 311      35.316  52.504  -4.565  1.00 35.51 LIG 0.01  A 
ATOM     59  CE1 TYR F 311      34.546  52.143  -5.659  1.00 35.35 LIG 0.04  A 
ATOM     60  CZ  TYR F 311      35.117  52.112  -6.911  1.00 34.90 LIG 0.07  A 
ATOM     61  CE2 TYR F 311      36.446  52.446  -7.087  1.00 36.46 LIG 0.04  A 
ATOM     62  CD2 TYR F 311      37.213  52.807  -5.989  1.00 36.25 LIG 0.01  A 
BRANCH 60 63
ATOM     63 OH   TYR F 311      34.360  51.748  -7.989  1.00 38.07 LIG-0.36  OA
ATOM     64 HH   TYR F 311      33.728  51.256  -7.734  1.00 38.07 LIG 0.22  HD
ENDBRANCH 60 63
ENDBRANCH 56 57
ENDBRANCH 36 56
ENDBRANCH 1 36
TORSDOF 27
ENDMDL
MODEL 3
USER: ADFR SOLUTION from run 108
USER: SCORE 20.682088 LL:  -4.931 LR: -16.303 RR:   0.000 FEB:  -8.248
USER: RMSD 2.641832
USER: SEED 107
USER: STATUS no improvement in best in 3 clusters for 5 generations
USER: GENES 29
USER: genes 0 Translation |==|  0.53874 0.43654 0.54907
USER: genes 1 Rotation |==|  0.52801 0.52240 0.44977 0.99618
USER: genes 2 Torsion [C]-N--CA-[C] |==|  0.74082
USER: genes 3 Torsion [N]-CA--C-[N] |==|  0.30241
USER: genes 4 Torsion [C]-N--CA-[C] |==|  0.69530
USER: genes 5 Torsion [N]-CA--C-[N] |==|  0.32675
USER: genes 6 Torsion [C]-N--CA-[CB] |==|  0.76209
USER: genes 7 Torsion [N]-CA--CB-[CG] |==|  0.08589
USER: genes 8 Torsion [CA]-CB--CG-[CD2] |==|  0.23506
USER: genes 9 Torsion [N]-CA--C-[O] |==|  0.14876
USER: genes 10 Torsion [N]-CA--CB-[CG] |==|  0.60001
USER: genes 11 Torsion [CA]-CB--CG-[CD] |==|  0.25941
USER: genes 12 Torsion [CB]-CG--CD-[CE] |==|  0.40493
USER: genes 13 Torsion [CG]-CD--CE-[NZ] |==|  0.81326
USER: genes 14 Torsion [CD]-CE--NZ-[HZ2] |==|  0.90638
USER: genes 15 Torsion [N]-CA--CB-[CG2] |==|  0.63607
USER: genes 16 Torsion [CA]-CB--OG1-[HG1] |==|  0.45196
USER: genes 17 Torsion [N]-C--CA-[N] |==|  0.43585
USER: genes 18 Torsion [C]-CA--N-[C] |==|  0.65362
USER: genes 19 Torsion [N]-C--CA-[N] |==|  0.13848
USER: genes 20 Torsion [C]-CA--CB-[CG] |==|  0.45150
USER: genes 21 Torsion [CA]-CB--CG-[CD] |==|  0.81735
USER: genes 22 Torsion [CB]-CG--CD-[OE2] |==|  0.59583
USER: genes 23 Torsion [C]-CA--N-[C] |==|  0.15760
USER: genes 24 Torsion [N]-C--CA-[N] |==|  0.42713
USER: genes 25 Torsion [C]-CA--CB-[CG2] |==|  0.45650
USER: genes 26 Torsion [C]-CA--CB-[CG] |==|  0.83951
USER: genes 27 Torsion [CA]-CB--CG-[CD1] |==|  0.24389
USER: genes 28 Torsion [CE1]-CZ--OH-[HH] |==|  0.01917
ROOT
ATOM      1  C   TYR F 311      37.083  50.875  -2.353  1.00 39.57 LIG 0.24  C 
ATOM      2 O    TYR F 311      36.874  49.913  -3.097  1.00 35.87 LIG-0.27  OA
ATOM      3  N   THR F 312      36.409  51.099  -1.227  1.00 39.28 LIG-0.34  N 
ATOM      4 H    THR F 312      36.589  51.750  -0.696  1.00 39.28 LIG 0.16  HD
ENDROOT
BRANCH 3 5
ATOM      5  CA  THR F 312      35.298  50.270  -0.777  1.00 41.67 LIG 0.20  C 
BRANCH 5 6
ATOM      6  C   THR F 312      33.970  50.840  -1.252  1.00 45.40 LIG 0.24  C 
ATOM      7  N   LYS F 313      33.353  50.157  -2.201  1.00 48.10 LIG-0.35  N 
ATOM      8 H    LYS F 313      33.695  49.477  -2.601  1.00 48.10 LIG 0.16  HD
ATOM      9 O    THR F 312      33.497  51.856  -0.747  1.00 48.99 LIG-0.27  OA
BRANCH 7 10
ATOM     10  CA  LYS F 313      32.016  50.508  -2.658  1.00 51.61 LIG 0.18  C 
BRANCH 10 11
ATOM     11  C   LYS F 313      31.018  49.439  -2.194  1.00 54.92 LIG 0.24  C 
ATOM     12 O    LYS F 313      31.129  48.269  -2.575  1.00 54.36 LIG-0.27  OA
ATOM     13  N   HIS F 314      30.061  49.863  -1.362  1.00 57.06 LIG-0.35  N 
ATOM     14 H    HIS F 314      29.991  50.684  -1.116  1.00 57.06 LIG 0.16  HD
BRANCH 13 15
ATOM     15  CA  HIS F 314      29.031  48.991  -0.777  1.00 57.78 LIG 0.17  C 
BRANCH 15 16
ATOM     16  CB  HIS F 314      27.830  48.837  -1.723  1.00 57.79 LIG 0.09  C 
BRANCH 16 17
ATOM     17  CG  HIS F 314      28.187  48.917  -3.176  1.00 61.61 LIG 0.06  A 
ATOM     18  CD2 HIS F 314      28.636  47.973  -4.039  1.00 62.97 LIG 0.14  A 
ATOM     19 NE2  HIS F 314      28.805  48.585  -5.259  1.00 63.36 LIG-0.25  NA
ATOM     20  CE1 HIS F 314      28.470  49.858  -5.152  1.00 61.50 LIG 0.23  A 
ATOM     21 ND1  HIS F 314      28.094  50.086  -3.905  1.00 63.00 LIG-0.24  NA
ENDBRANCH 16 17
ENDBRANCH 15 16
BRANCH 15 22
ATOM     22  C   HIS F 314      29.583  47.615  -0.386  1.00 59.91 LIG 0.22  C 
ATOM     23 O    HIS F 314      30.573  47.511   0.347  1.00 59.00 LIG-0.29  OA
ENDBRANCH 15 22
ENDBRANCH 13 15
ENDBRANCH 10 11
BRANCH 10 24
ATOM     24  CB  LYS F 313      31.990  50.673  -4.181  1.00 49.70 LIG 0.04  C 
BRANCH 24 25
ATOM     25  CG  LYS F 313      31.058  51.781  -4.649  1.00 49.89 LIG 0.00  C 
BRANCH 25 26
ATOM     26  CD  LYS F 313      31.778  53.108  -4.825  1.00 49.58 LIG 0.03  C 
BRANCH 26 27
ATOM     27  CE  LYS F 313      31.187  53.900  -5.984  1.00 48.23 LIG 0.23  C 
BRANCH 27 28
ATOM     28  NZ  LYS F 313      31.450  53.237  -7.283  1.00 47.83 LIG-0.08  N 
ATOM     29 HZ2  LYS F 313      32.241  52.829  -7.254  1.00 47.83 LIG 0.27  HD
ATOM     30 HZ1  LYS F 313      31.455  53.846  -7.932  1.00 47.83 LIG 0.27  HD
ATOM     31 HZ3  LYS F 313      30.813  52.637  -7.445  1.00 47.83 LIG 0.27  HD
ENDBRANCH 27 28
ENDBRANCH 26 27
ENDBRANCH 25 26
ENDBRANCH 24 25
ENDBRANCH 10 24
ENDBRANCH 7 10
ENDBRANCH 5 6
BRANCH 5 32
ATOM     32  CB  THR F 312      35.229  50.222   0.759  1.00 41.09 LIG 0.15  C 
ATOM     33  CG2 THR F 312      35.101  48.794   1.260  1.00 40.88 LIG 0.04  C 
BRANCH 32 34
ATOM     34 OG1  THR F 312      36.419  50.809   1.297  1.00 43.07 LIG-0.39  OA
ATOM     35 HG1  THR F 312      36.296  51.004   2.105  1.00 43.07 LIG 0.21  HD
ENDBRANCH 32 34
ENDBRANCH 5 32
ENDBRANCH 3 5
BRANCH 1 36
ATOM     36  CA  TYR F 311      38.143  51.924  -2.696  1.00 39.31 LIG 0.18  C 
BRANCH 36 37
ATOM     37  N   TYR F 311      39.189  51.411  -3.580  1.00 40.62 LIG-0.35  N 
ATOM     38 H    TYR F 311      38.901  51.069  -4.314  1.00 40.62 LIG 0.16  HD
ATOM     39  C   GLU F 310      40.474  51.485  -3.245  1.00 41.86 LIG 0.24  C 
ATOM     40 O    GLU F 310      40.841  51.887  -2.151  1.00 41.90 LIG-0.27  OA
BRANCH 39 41
ATOM     41  CA  GLU F 310      41.499  51.011  -4.273  1.00 43.14 LIG 0.18  C 
BRANCH 41 42
ATOM     42  CB  GLU F 310      42.903  51.372  -3.780  1.00 44.06 LIG 0.04  C 
BRANCH 42 43
ATOM     43  CG  GLU F 310      44.015  50.606  -4.478  1.00 45.60 LIG 0.12  C 
BRANCH 43 44
ATOM     44  CD  GLU F 310      43.992  49.112  -4.190  1.00 46.85 LIG 0.17  C 
ATOM     45 OE2  GLU F 310      45.091  48.518  -4.115  1.00 47.09 LIG-0.65  OA
ATOM     46 OE1  GLU F 310      42.890  48.527  -4.057  1.00 45.53 LIG-0.65  OA
ENDBRANCH 43 44
ENDBRANCH 42 43
ENDBRANCH 41 42
BRANCH 41 47
ATOM     47  N   GLU F 310      41.241  51.623  -5.586  1.00 43.23 LIG-0.35  N 
ATOM     48  C   VAL F 309      41.187  52.945  -5.784  1.00 44.16 LIG 0.26  C 
ATOM     49 O    VAL F 309      41.309  53.776  -4.881  1.00 43.83 LIG-0.27  OA
ATOM     50 H    GLU F 310      41.127  51.049  -6.217  1.00 43.23 LIG 0.16  HD
BRANCH 48 51
ATOM     51  CA  VAL F 309      40.962  53.412  -7.228  1.00 44.86 LIG 0.40  C 
ATOM     52  N   VAL F 309      40.310  54.755  -7.225  1.00 44.58 LIG 0.61  N 
BRANCH 51 53
ATOM     53  CB  VAL F 309      42.295  53.448  -8.030  1.00 44.54 LIG 0.03  C 
ATOM     54  CG2 VAL F 309      42.010  53.533  -9.525  1.00 44.44 LIG 0.01  C 
ATOM     55  CG1 VAL F 309      43.190  52.248  -7.726  1.00 43.50 LIG 0.01  C 
ENDBRANCH 51 53
ENDBRANCH 48 51
ENDBRANCH 41 47
ENDBRANCH 39 41
ENDBRANCH 36 37
BRANCH 36 56
ATOM     56  CB  TYR F 311      37.457  53.125  -3.353  1.00 38.48 LIG 0.07  C 
BRANCH 56 57
ATOM     57  CG  TYR F 311      36.681  52.756  -4.599  1.00 36.48 LIG-0.06  A 
ATOM     58  CD1 TYR F 311      35.355  52.345  -4.518  1.00 35.51 LIG 0.01  A 
ATOM     59  CE1 TYR F 311      34.639  52.003  -5.654  1.00 35.35 LIG 0.04  A 
ATOM     60  CZ  TYR F 311      35.251  52.056  -6.884  1.00 34.90 LIG 0.07  A 
ATOM     61  CE2 TYR F 311      36.569  52.456  -6.999  1.00 36.46 LIG 0.04  A 
ATOM     62  CD2 TYR F 311      37.282  52.798  -5.859  1.00 36.25 LIG 0.01  A 
BRANCH 60 63
ATOM     63 OH   TYR F 311      34.547  51.711  -8.004  1.00 38.07 LIG-0.36  OA
ATOM     64 HH   TYR F 311      33.742  51.583  -7.800  1.00 38.07 LIG 0.22  HD
ENDBRANCH 60 63
ENDBRANCH 56 57
ENDBRANCH 36 56
ENDBRANCH 1 36
TORSDOF 27
ENDMDL
MODEL 4
USER: ADFR SOLUTION from run 103
USER: SCORE 20.935480 LL:  -5.227 LR: -16.205 RR:   0.000 FEB:  -8.151
USER: RMSD 4.423199
USER: SEED 102
USER: STATUS searching
USER: GENES 29
USER: genes 0 Translation |==|  0.54898 0.44296 0.54981
USER: genes 1 Rotation |==|  0.50548 0.53022 0.50902 0.99897
USER: genes 2 Torsion [C]-N--CA-[C] |==|  0.67530
USER: genes 3 Torsion [N]-CA--C-[N] |==|  0.33617
USER: genes 4 Torsion [C]-N--CA-[C] |==|  0.16075
USER: genes 5 Torsion [N]-CA--C-[N] |==|  0.12617
USER: genes 6 Torsion [C]-N--CA-[CB] |==|  0.85962
USER: genes 7 Torsion [N]-CA--CB-[CG] |==|  0.59759
USER: genes 8 Torsion [CA]-CB--CG-[CD2] |==|  0.14195
USER: genes 9 Torsion [N]-CA--C-[O] |==|  0.15149
USER: genes 10 Torsion [N]-CA--CB-[CG] |==|  0.74626
USER: genes 11 Torsion [CA]-CB--CG-[CD] |==|  0.51610
USER: genes 12 Torsion [CB]-CG--CD-[CE] |==|  0.55108
USER: genes 13 Torsion [CG]-CD--CE-[NZ] |==|  0.54468
USER: genes 14 Torsion [CD]-CE--NZ-[HZ2] |==|  0.75015
USER: genes 15 Torsion [N]-CA--CB-[CG2] |==|  0.57996
USER: genes 16 Torsion [CA]-CB--OG1-[HG1] |==|  0.33237
USER: genes 17 Torsion [N]-C--CA-[N] |==|  0.45454
USER: genes 18 Torsion [C]-CA--N-[C] |==|  0.55396
USER: genes 19 Torsion [N]-C--CA-[N] |==|  0.36770
USER: genes 20 Torsion [C]-CA--CB-[CG] |==|  0.19169
USER: genes 21 Torsion [CA]-CB--CG-[CD] |==|  0.34103
USER: genes 22 Torsion [CB]-CG--CD-[OE2] |==|  0.53171
USER: genes 23 Torsion [C]-CA--N-[C] |==|  0.76049
USER: genes 24 Torsion [N]-C--CA-[N] |==|  0.40420
USER: genes 25 Torsion [C]-CA--CB-[CG2] |==|  0.03110
USER: genes 26 Torsion [C]-CA--CB-[CG] |==|  0.82335
USER: genes 27 Torsion [CA]-CB--CG-[CD1] |==|  0.25544
USER: genes 28 Torsion [CE1]-CZ--OH-[HH] |==|  0.05790
ROOT
ATOM      1  C   TYR F 311      37.367  51.000  -2.339  1.00 39.57 LIG 0.24  C 
ATOM      2 O    TYR F 311      37.383  49.960  -3.003  1.00 35.87 LIG-0.27  OA
ATOM      3  N   THR F 312      36.678  51.145  -1.209  1.00 39.28 LIG-0.34  N 
ATOM      4 H    THR F 312      36.705  51.860  -0.732  1.00 39.28 LIG 0.16  HD
ENDROOT
BRANCH 3 5
ATOM      5  CA  THR F 312      35.808  50.113  -0.661  1.00 41.67 LIG 0.20  C 
BRANCH 5 6
ATOM      6  C   THR F 312      34.363  50.588  -0.619  1.00 45.40 LIG 0.24  C 
ATOM      7  N   LYS F 313      33.494  49.860  -1.300  1.00 48.10 LIG-0.35  N 
ATOM      8 H    LYS F 313      33.714  49.204  -1.808  1.00 48.10 LIG 0.16  HD
ATOM      9 O    THR F 312      34.036  51.571   0.042  1.00 48.99 LIG-0.27  OA
BRANCH 7 10
ATOM     10  CA  LYS F 313      32.062  50.117  -1.242  1.00 51.61 LIG 0.18  C 
BRANCH 10 11
ATOM     11  C   LYS F 313      31.781  51.559  -1.685  1.00 54.92 LIG 0.24  C 
ATOM     12 O    LYS F 313      31.015  52.278  -1.034  1.00 54.36 LIG-0.27  OA
ATOM     13  N   HIS F 314      32.423  51.961  -2.786  1.00 57.06 LIG-0.35  N 
ATOM     14 H    HIS F 314      32.944  51.444  -3.235  1.00 57.06 LIG 0.16  HD
BRANCH 13 15
ATOM     15  CA  HIS F 314      32.318  53.314  -3.355  1.00 57.78 LIG 0.17  C 
BRANCH 15 16
ATOM     16  CB  HIS F 314      30.850  53.735  -3.520  1.00 57.79 LIG 0.09  C 
BRANCH 16 17
ATOM     17  CG  HIS F 314      30.593  54.582  -4.730  1.00 61.61 LIG 0.06  A 
ATOM     18  CD2 HIS F 314      30.921  54.402  -6.032  1.00 62.97 LIG 0.14  A 
ATOM     19 NE2  HIS F 314      30.440  55.487  -6.726  1.00 63.36 LIG-0.25  NA
ATOM     20  CE1 HIS F 314      29.836  56.305  -5.883  1.00 61.50 LIG 0.23  A 
ATOM     21 ND1  HIS F 314      29.914  55.783  -4.670  1.00 63.00 LIG-0.24  NA
ENDBRANCH 16 17
ENDBRANCH 15 16
BRANCH 15 22
ATOM     22  C   HIS F 314      33.083  54.355  -2.529  1.00 59.91 LIG 0.22  C 
ATOM     23 O    HIS F 314      34.281  54.205  -2.266  1.00 59.00 LIG-0.29  OA
ENDBRANCH 15 22
ENDBRANCH 13 15
ENDBRANCH 10 11
BRANCH 10 24
ATOM     24  CB  LYS F 313      31.520  49.850   0.167  1.00 49.70 LIG 0.04  C 
BRANCH 24 25
ATOM     25  CG  LYS F 313      31.025  48.424   0.359  1.00 49.89 LIG 0.00  C 
BRANCH 25 26
ATOM     26  CD  LYS F 313      30.365  48.218   1.713  1.00 49.58 LIG 0.03  C 
BRANCH 26 27
ATOM     27  CE  LYS F 313      30.291  46.738   2.064  1.00 48.23 LIG 0.23  C 
BRANCH 27 28
ATOM     28  NZ  LYS F 313      29.331  46.489   3.165  1.00 47.83 LIG-0.08  N 
ATOM     29 HZ2  LYS F 313      29.755  46.542   3.946  1.00 47.83 LIG 0.27  HD
ATOM     30 HZ1  LYS F 313      28.978  45.677   3.074  1.00 47.83 LIG 0.27  HD
ATOM     31 HZ3  LYS F 313      28.682  47.098   3.138  1.00 47.83 LIG 0.27  HD
ENDBRANCH 27 28
ENDBRANCH 26 27
ENDBRANCH 25 26
ENDBRANCH 24 25
ENDBRANCH 10 24
ENDBRANCH 7 10
ENDBRANCH 5 6
BRANCH 5 32
ATOM     32  CB  THR F 312      36.197  49.770   0.788  1.00 41.09 LIG 0.15  C 
ATOM     33  CG2 THR F 312      35.847  48.332   1.126  1.00 40.88 LIG 0.04  C 
BRANCH 32 34
ATOM     34 OG1  THR F 312      37.606  49.967   0.949  1.00 43.07 LIG-0.39  OA
ATOM     35 HG1  THR F 312      37.743  50.548   1.540  1.00 43.07 LIG 0.21  HD
ENDBRANCH 32 34
ENDBRANCH 5 32
ENDBRANCH 3 5
BRANCH 1 36
ATOM     36  CA  TYR F 311      38.137  52.242  -2.794  1.00 39.31 LIG 0.18  C 
BRANCH 36 37
ATOM     37  N   TYR F 311      39.160  51.944  -3.795  1.00 40.62 LIG-0.35  N 
ATOM     38 H    TYR F 311      39.052  51.196  -4.206  1.00 40.62 LIG 0.16  HD
ATOM     39  C   GLU F 310      40.164  52.785  -4.028  1.00 41.86 LIG 0.24  C 
ATOM     40 O    GLU F 310      40.341  53.791  -3.357  1.00 41.90 LIG-0.27  OA
BRANCH 39 41
ATOM     41  CA  GLU F 310      41.130  52.435  -5.158  1.00 43.14 LIG 0.18  C 
BRANCH 41 42
ATOM     42  CB  GLU F 310      42.449  51.947  -4.553  1.00 44.06 LIG 0.04  C 
BRANCH 42 43
ATOM     43  CG  GLU F 310      42.344  50.599  -3.857  1.00 45.60 LIG 0.12  C 
BRANCH 43 44
ATOM     44  CD  GLU F 310      43.300  49.555  -4.416  1.00 46.85 LIG 0.17  C 
ATOM     45 OE2  GLU F 310      43.136  48.367  -4.060  1.00 47.09 LIG-0.65  OA
ATOM     46 OE1  GLU F 310      44.221  49.915  -5.189  1.00 45.53 LIG-0.65  OA
ENDBRANCH 43 44
ENDBRANCH 42 43
ENDBRANCH 41 42
BRANCH 41 47
ATOM     47  N   GLU F 310      41.361  53.600  -6.026  1.00 43.23 LIG-0.35  N 
ATOM     48  C   VAL F 309      40.571  53.917  -7.058  1.00 44.16 LIG 0.26  C 
ATOM     49 O    VAL F 309      39.599  53.243  -7.406  1.00 43.83 LIG-0.27  OA
ATOM     50 H    GLU F 310      42.054  54.061  -5.807  1.00 43.23 LIG 0.16  HD
BRANCH 48 51
ATOM     51  CA  VAL F 309      40.926  55.198  -7.825  1.00 44.86 LIG 0.40  C 
ATOM     52  N   VAL F 309      40.612  55.020  -9.273  1.00 44.58 LIG 0.61  N 
BRANCH 51 53
ATOM     53  CB  VAL F 309      40.180  56.435  -7.246  1.00 44.54 LIG 0.03  C 
ATOM     54  CG2 VAL F 309      39.524  56.081  -5.916  1.00 44.44 LIG 0.01  C 
ATOM     55  CG1 VAL F 309      39.146  56.998  -8.218  1.00 43.50 LIG 0.01  C 
ENDBRANCH 51 53
ENDBRANCH 48 51
ENDBRANCH 41 47
ENDBRANCH 39 41
ENDBRANCH 36 37
BRANCH 36 56
ATOM     56  CB  TYR F 311      37.143  53.261  -3.360  1.00 38.48 LIG 0.07  C 
BRANCH 56 57
ATOM     57  CG  TYR F 311      36.427  52.765  -4.597  1.00 36.48 LIG-0.06  A 
ATOM     58  CD1 TYR F 311      35.206  52.105  -4.499  1.00 35.51 LIG 0.01  A 
ATOM     59  CE1 TYR F 311      34.545  51.647  -5.626  1.00 35.35 LIG 0.04  A 
ATOM     60  CZ  TYR F 311      35.110  51.833  -6.867  1.00 34.90 LIG 0.07  A 
ATOM     61  CE2 TYR F 311      36.323  52.480  -6.999  1.00 36.46 LIG 0.04  A 
ATOM     62  CD2 TYR F 311      36.981  52.938  -5.867  1.00 36.25 LIG 0.01  A 
BRANCH 60 63
ATOM     63 OH   TYR F 311      34.461  51.373  -7.979  1.00 38.07 LIG-0.36  OA
ATOM     64 HH   TYR F 311      33.645  51.269  -7.805  1.00 38.07 LIG 0.22  HD
ENDBRANCH 60 63
ENDBRANCH 56 57
ENDBRANCH 36 56
ENDBRANCH 1 36
TORSDOF 27
ENDMDL
MODEL 5
USER: ADFR SOLUTION from run 15
USER: SCORE 20.876969 LL:  -5.422 LR: -16.096 RR:   0.000 FEB:  -8.042
USER: RMSD 2.448639
USER: SEED 219035
USER: STATUS searching
USER: GENES 29
USER: genes 0 Translation |==|  0.53864 0.44562 0.52893
USER: genes 1 Rotation |==|  0.50415 0.45237 0.47736 0.99719
USER: genes 2 Torsion [C]-N--CA-[C] |==|  0.70498
USER: genes 3 Torsion [N]-CA--C-[N] |==|  0.39631
USER: genes 4 Torsion [C]-N--CA-[C] |==|  0.56906
USER: genes 5 Torsion [N]-CA--C-[N] |==|  0.48579
USER: genes 6 Torsion [C]-N--CA-[CB] |==|  0.32001
USER: genes 7 Torsion [N]-CA--CB-[CG] |==|  0.85764
USER: genes 8 Torsion [CA]-CB--CG-[CD2] |==|  0.38074
USER: genes 9 Torsion [N]-CA--C-[O] |==|  0.19628
USER: genes 10 Torsion [N]-CA--CB-[CG] |==|  0.62031
USER: genes 11 Torsion [CA]-CB--CG-[CD] |==|  0.35494
USER: genes 12 Torsion [CB]-CG--CD-[CE] |==|  0.35154
USER: genes 13 Torsion [CG]-CD--CE-[NZ] |==|  0.75020
USER: genes 14 Torsion [CD]-CE--NZ-[HZ2] |==|  0.61082
USER: genes 15 Torsion [N]-CA--CB-[CG2] |==|  0.74534
USER: genes 16 Torsion [CA]-CB--OG1-[HG1] |==|  0.50871
USER: genes 17 Torsion [N]-C--CA-[N] |==|  0.46810
USER: genes 18 Torsion [C]-CA--N-[C] |==|  0.53915
USER: genes 19 Torsion [N]-C--CA-[N] |==|  0.33503
USER: genes 20 Torsion [C]-CA--CB-[CG] |==|  0.43838
USER: genes 21 Torsion [CA]-CB--CG-[CD] |==|  0.80136
USER: genes 22 Torsion [CB]-CG--CD-[OE2] |==|  0.62321
USER: genes 23 Torsion [C]-CA--N-[C] |==|  0.79012
USER: genes 24 Torsion [N]-C--CA-[N] |==|  0.39903
USER: genes 25 Torsion [C]-CA--CB-[CG2] |==|  0.97967
USER: genes 26 Torsion [C]-CA--CB-[CG] |==|  0.87512
USER: genes 27 Torsion [CA]-CB--CG-[CD1] |==|  0.23618
USER: genes 28 Torsion [CE1]-CZ--OH-[HH] |==|  0.91156
ROOT
ATOM      1  C   TYR F 311      37.080  51.052  -2.746  1.00 39.57 LIG 0.24  C 
ATOM      2 O    TYR F 311      37.164  50.001  -3.387  1.00 35.87 LIG-0.27  OA
ATOM      3  N   THR F 312      36.105  51.313  -1.878  1.00 39.28 LIG-0.34  N 
ATOM      4 H    THR F 312      36.077  52.032  -1.407  1.00 39.28 LIG 0.16  HD
ENDROOT
BRANCH 3 5
ATOM      5  CA  THR F 312      34.984  50.415  -1.635  1.00 41.67 LIG 0.20  C 
BRANCH 5 6
ATOM      6  C   THR F 312      33.709  50.956  -2.265  1.00 45.40 LIG 0.24  C 
ATOM      7  N   LYS F 313      32.898  50.056  -2.797  1.00 48.10 LIG-0.35  N 
ATOM      8 H    LYS F 313      33.091  49.222  -2.870  1.00 48.10 LIG 0.16  HD
ATOM      9 O    THR F 312      33.448  52.156  -2.242  1.00 48.99 LIG-0.27  OA
BRANCH 7 10
ATOM     10  CA  LYS F 313      31.585  50.413  -3.315  1.00 51.61 LIG 0.18  C 
BRANCH 10 11
ATOM     11  C   LYS F 313      30.669  49.183  -3.281  1.00 54.92 LIG 0.24  C 
ATOM     12 O    LYS F 313      31.109  48.081  -2.936  1.00 54.36 LIG-0.27  OA
ATOM     13  N   HIS F 314      29.397  49.399  -3.631  1.00 57.06 LIG-0.35  N 
ATOM     14 H    HIS F 314      29.110  50.170  -3.881  1.00 57.06 LIG 0.16  HD
BRANCH 13 15
ATOM     15  CA  HIS F 314      28.353  48.362  -3.631  1.00 57.78 LIG 0.17  C 
BRANCH 15 16
ATOM     16  CB  HIS F 314      27.262  48.672  -2.595  1.00 57.79 LIG 0.09  C 
BRANCH 16 17
ATOM     17  CG  HIS F 314      27.791  48.962  -1.224  1.00 61.61 LIG 0.06  A 
ATOM     18  CD2 HIS F 314      27.451  49.909  -0.316  1.00 62.97 LIG 0.14  A 
ATOM     19 NE2  HIS F 314      28.254  49.725   0.785  1.00 63.36 LIG-0.25  NA
ATOM     20  CE1 HIS F 314      29.058  48.700   0.565  1.00 61.50 LIG 0.23  A 
ATOM     21 ND1  HIS F 314      28.800  48.220  -0.640  1.00 63.00 LIG-0.24  NA
ENDBRANCH 16 17
ENDBRANCH 15 16
BRANCH 15 22
ATOM     22  C   HIS F 314      27.731  48.160  -5.018  1.00 59.91 LIG 0.22  C 
ATOM     23 O    HIS F 314      28.372  47.631  -5.933  1.00 59.00 LIG-0.29  OA
ENDBRANCH 15 22
ENDBRANCH 13 15
ENDBRANCH 10 11
BRANCH 10 24
ATOM     24  CB  LYS F 313      31.699  50.985  -4.732  1.00 49.70 LIG 0.04  C 
BRANCH 24 25
ATOM     25  CG  LYS F 313      30.831  52.215  -4.954  1.00 49.89 LIG 0.00  C 
BRANCH 25 26
ATOM     26  CD  LYS F 313      31.618  53.385  -5.521  1.00 49.58 LIG 0.03  C 
BRANCH 26 27
ATOM     27  CE  LYS F 313      30.964  53.920  -6.787  1.00 48.23 LIG 0.23  C 
BRANCH 27 28
ATOM     28  NZ  LYS F 313      31.482  53.237  -7.996  1.00 47.83 LIG-0.08  N 
ATOM     29 HZ2  LYS F 313      31.588  53.831  -8.651  1.00 47.83 LIG 0.27  HD
ATOM     30 HZ1  LYS F 313      30.905  52.611  -8.254  1.00 47.83 LIG 0.27  HD
ATOM     31 HZ3  LYS F 313      32.266  52.858  -7.810  1.00 47.83 LIG 0.27  HD
ENDBRANCH 27 28
ENDBRANCH 26 27
ENDBRANCH 25 26
ENDBRANCH 24 25
ENDBRANCH 10 24
ENDBRANCH 7 10
ENDBRANCH 5 6
BRANCH 5 32
ATOM     32  CB  THR F 312      34.701  50.274  -0.129  1.00 41.09 LIG 0.15  C 
ATOM     33  CG2 THR F 312      35.462  49.102   0.466  1.00 40.88 LIG 0.04  C 
BRANCH 32 34
ATOM     34 OG1  THR F 312      35.095  51.482   0.531  1.00 43.07 LIG-0.39  OA
ATOM     35 HG1  THR F 312      34.984  51.397   1.360  1.00 43.07 LIG 0.21  HD
ENDBRANCH 32 34
ENDBRANCH 5 32
ENDBRANCH 3 5
BRANCH 1 36
ATOM     36  CA  TYR F 311      38.105  52.173  -2.928  1.00 39.31 LIG 0.18  C 
BRANCH 36 37
ATOM     37  N   TYR F 311      39.289  51.750  -3.674  1.00 40.62 LIG-0.35  N 
ATOM     38 H    TYR F 311      39.203  50.999  -4.085  1.00 40.62 LIG 0.16  HD
ATOM     39  C   GLU F 310      40.395  52.489  -3.694  1.00 41.86 LIG 0.24  C 
ATOM     40 O    GLU F 310      40.515  53.500  -3.018  1.00 41.90 LIG-0.27  OA
BRANCH 39 41
ATOM     41  CA  GLU F 310      41.546  52.012  -4.577  1.00 43.14 LIG 0.18  C 
BRANCH 41 42
ATOM     42  CB  GLU F 310      42.759  51.708  -3.693  1.00 44.06 LIG 0.04  C 
BRANCH 42 43
ATOM     43  CG  GLU F 310      43.757  50.753  -4.327  1.00 45.60 LIG 0.12  C 
BRANCH 43 44
ATOM     44  CD  GLU F 310      43.253  49.320  -4.409  1.00 46.85 LIG 0.17  C 
ATOM     45 OE2  GLU F 310      44.044  48.407  -4.084  1.00 47.09 LIG-0.65  OA
ATOM     46 OE1  GLU F 310      42.085  49.099  -4.810  1.00 45.53 LIG-0.65  OA
ENDBRANCH 43 44
ENDBRANCH 42 43
ENDBRANCH 41 42
BRANCH 41 47
ATOM     47  N   GLU F 310      41.885  53.029  -5.585  1.00 43.23 LIG-0.35  N 
ATOM     48  C   VAL F 309      41.144  53.261  -6.674  1.00 44.16 LIG 0.26  C 
ATOM     49 O    VAL F 309      40.131  52.619  -6.960  1.00 43.83 LIG-0.27  OA
ATOM     50 H    GLU F 310      42.606  53.463  -5.407  1.00 43.23 LIG 0.16  HD
BRANCH 48 51
ATOM     51  CA  VAL F 309      41.614  54.396  -7.593  1.00 44.86 LIG 0.40  C 
ATOM     52  N   VAL F 309      41.359  54.028  -9.018  1.00 44.58 LIG 0.61  N 
BRANCH 51 53
ATOM     53  CB  VAL F 309      40.917  55.742  -7.239  1.00 44.54 LIG 0.03  C 
ATOM     54  CG2 VAL F 309      39.830  55.515  -6.195  1.00 44.44 LIG 0.01  C 
ATOM     55  CG1 VAL F 309      40.339  56.439  -8.468  1.00 43.50 LIG 0.01  C 
ENDBRANCH 51 53
ENDBRANCH 48 51
ENDBRANCH 41 47
ENDBRANCH 39 41
ENDBRANCH 36 37
BRANCH 36 56
ATOM     56  CB  TYR F 311      37.434  53.345  -3.651  1.00 38.48 LIG 0.07  C 
BRANCH 56 57
ATOM     57  CG  TYR F 311      36.594  52.910  -4.832  1.00 36.48 LIG-0.06  A 
ATOM     58  CD1 TYR F 311      35.275  52.502  -4.658  1.00 35.51 LIG 0.01  A 
ATOM     59  CE1 TYR F 311      34.500  52.099  -5.734  1.00 35.35 LIG 0.04  A 
ATOM     60  CZ  TYR F 311      35.045  52.088  -6.997  1.00 34.90 LIG 0.07  A 
ATOM     61  CE2 TYR F 311      36.353  52.483  -7.203  1.00 36.46 LIG 0.04  A 
ATOM     62  CD2 TYR F 311      37.125  52.885  -6.123  1.00 36.25 LIG 0.01  A 
BRANCH 60 63
ATOM     63 OH   TYR F 311      34.283  51.683  -8.057  1.00 38.07 LIG-0.36  OA
ATOM     64 HH   TYR F 311      33.734  51.100  -7.802  1.00 38.07 LIG 0.22  HD
ENDBRANCH 60 63
ENDBRANCH 56 57
ENDBRANCH 36 56
ENDBRANCH 1 36
TORSDOF 27
ENDMDL
MODEL 6
USER: ADFR SOLUTION from run 117
USER: SCORE 20.280187 LL:  -5.275 LR: -16.052 RR:   0.000 FEB:  -7.997
USER: RMSD 1.512421
USER: SEED 116
USER: STATUS searching
USER: GENES 29
USER: genes 0 Translation |==|  0.54413 0.44250 0.53622
USER: genes 1 Rotation |==|  0.46165 0.43162 0.52375 0.99324
USER: genes 2 Torsion [C]-N--CA-[C] |==|  0.62862
USER: genes 3 Torsion [N]-CA--C-[N] |==|  0.39639
USER: genes 4 Torsion [C]-N--CA-[C] |==|  0.63875
USER: genes 5 Torsion [N]-CA--C-[N] |==|  0.27779
USER: genes 6 Torsion [C]-N--CA-[CB] |==|  0.80267
USER: genes 7 Torsion [N]-CA--CB-[CG] |==|  0.92480
USER: genes 8 Torsion [CA]-CB--CG-[CD2] |==|  0.37683
USER: genes 9 Torsion [N]-CA--C-[O] |==|  0.14077
USER: genes 10 Torsion [N]-CA--CB-[CG] |==|  0.49273
USER: genes 11 Torsion [CA]-CB--CG-[CD] |==|  0.62567
USER: genes 12 Torsion [CB]-CG--CD-[CE] |==|  0.22800
USER: genes 13 Torsion [CG]-CD--CE-[NZ] |==|  0.77858
USER: genes 14 Torsion [CD]-CE--NZ-[HZ2] |==|  0.42174
USER: genes 15 Torsion [N]-CA--CB-[CG2] |==|  0.34057
USER: genes 16 Torsion [CA]-CB--OG1-[HG1] |==|  0.98065
USER: genes 17 Torsion [N]-C--CA-[N] |==|  0.51551
USER: genes 18 Torsion [C]-CA--N-[C] |==|  0.53659
USER: genes 19 Torsion [N]-C--CA-[N] |==|  0.37273
USER: genes 20 Torsion [C]-CA--CB-[CG] |==|  0.20077
USER: genes 21 Torsion [CA]-CB--CG-[CD] |==|  0.31876
USER: genes 22 Torsion [CB]-CG--CD-[OE2] |==|  0.02548
USER: genes 23 Torsion [C]-CA--N-[C] |==|  0.76570
USER: genes 24 Torsion [N]-C--CA-[N] |==|  0.40914
USER: genes 25 Torsion [C]-CA--CB-[CG2] |==|  0.99925
USER: genes 26 Torsion [C]-CA--CB-[CG] |==|  0.84511
USER: genes 27 Torsion [CA]-CB--CG-[CD1] |==|  0.25457
USER: genes 28 Torsion [CE1]-CZ--OH-[HH] |==|  0.03303
ROOT
ATOM      1  C   TYR F 311      37.233  50.991  -2.604  1.00 39.57 LIG 0.24  C 
ATOM      2 O    TYR F 311      37.540  49.871  -3.021  1.00 35.87 LIG-0.27  OA
ATOM      3  N   THR F 312      36.152  51.233  -1.866  1.00 39.28 LIG-0.34  N 
ATOM      4 H    THR F 312      35.967  52.010  -1.546  1.00 39.28 LIG 0.16  HD
ENDROOT
BRANCH 3 5
ATOM      5  CA  THR F 312      35.169  50.214  -1.521  1.00 41.67 LIG 0.20  C 
BRANCH 5 6
ATOM      6  C   THR F 312      33.754  50.727  -1.745  1.00 45.40 LIG 0.24  C 
ATOM      7  N   LYS F 313      32.886  49.847  -2.214  1.00 48.10 LIG-0.35  N 
ATOM      8 H    LYS F 313      33.098  49.052  -2.464  1.00 48.10 LIG 0.16  HD
ATOM      9 O    THR F 312      33.446  51.884  -1.467  1.00 48.99 LIG-0.27  OA
BRANCH 7 10
ATOM     10  CA  LYS F 313      31.471  50.159  -2.351  1.00 51.61 LIG 0.18  C 
BRANCH 10 11
ATOM     11  C   LYS F 313      30.635  49.046  -1.707  1.00 54.92 LIG 0.24  C 
ATOM     12 O    LYS F 313      30.433  47.984  -2.307  1.00 54.36 LIG-0.27  OA
ATOM     13  N   HIS F 314      30.172  49.306  -0.480  1.00 57.06 LIG-0.35  N 
ATOM     14 H    HIS F 314      30.311  50.055  -0.081  1.00 57.06 LIG 0.16  HD
BRANCH 13 15
ATOM     15  CA  HIS F 314      29.382  48.358   0.322  1.00 57.78 LIG 0.17  C 
BRANCH 15 16
ATOM     16  CB  HIS F 314      27.968  48.185  -0.255  1.00 57.79 LIG 0.09  C 
BRANCH 16 17
ATOM     17  CG  HIS F 314      27.474  49.376  -1.019  1.00 61.61 LIG 0.06  A 
ATOM     18  CD2 HIS F 314      26.830  49.470  -2.207  1.00 62.97 LIG 0.14  A 
ATOM     19 NE2  HIS F 314      26.606  50.807  -2.443  1.00 63.36 LIG-0.25  NA
ATOM     20  CE1 HIS F 314      27.093  51.509  -1.436  1.00 61.50 LIG 0.23  A 
ATOM     21 ND1  HIS F 314      27.624  50.671  -0.562  1.00 63.00 LIG-0.24  NA
ENDBRANCH 16 17
ENDBRANCH 15 16
BRANCH 15 22
ATOM     22  C   HIS F 314      30.071  46.996   0.463  1.00 59.91 LIG 0.22  C 
ATOM     23 O    HIS F 314      31.249  46.913   0.831  1.00 59.00 LIG-0.29  OA
ENDBRANCH 15 22
ENDBRANCH 13 15
ENDBRANCH 10 11
BRANCH 10 24
ATOM     24  CB  LYS F 313      31.099  50.354  -3.825  1.00 49.70 LIG 0.04  C 
BRANCH 24 25
ATOM     25  CG  LYS F 313      29.617  50.621  -4.040  1.00 49.89 LIG 0.00  C 
BRANCH 25 26
ATOM     26  CD  LYS F 313      29.041  49.805  -5.187  1.00 49.58 LIG 0.03  C 
BRANCH 26 27
ATOM     27  CE  LYS F 313      28.694  48.394  -4.731  1.00 48.23 LIG 0.23  C 
BRANCH 27 28
ATOM     28  NZ  LYS F 313      29.897  47.531  -4.673  1.00 47.83 LIG-0.08  N 
ATOM     29 HZ2  LYS F 313      29.779  46.898  -4.058  1.00 47.83 LIG 0.27  HD
ATOM     30 HZ1  LYS F 313      30.607  48.024  -4.459  1.00 47.83 LIG 0.27  HD
ATOM     31 HZ3  LYS F 313      30.029  47.151  -5.467  1.00 47.83 LIG 0.27  HD
ENDBRANCH 27 28
ENDBRANCH 26 27
ENDBRANCH 25 26
ENDBRANCH 24 25
ENDBRANCH 10 24
ENDBRANCH 7 10
ENDBRANCH 5 6
BRANCH 5 32
ATOM     32  CB  THR F 312      35.265  49.831  -0.034  1.00 41.09 LIG 0.15  C 
ATOM     33  CG2 THR F 312      33.940  50.047   0.677  1.00 40.88 LIG 0.04  C 
BRANCH 32 34
ATOM     34 OG1  THR F 312      35.640  48.453   0.068  1.00 43.07 LIG-0.39  OA
ATOM     35 HG1  THR F 312      35.639  48.105  -0.697  1.00 43.07 LIG 0.21  HD
ENDBRANCH 32 34
ENDBRANCH 5 32
ENDBRANCH 3 5
BRANCH 1 36
ATOM     36  CA  TYR F 311      38.080  52.220  -2.938  1.00 39.31 LIG 0.18  C 
BRANCH 36 37
ATOM     37  N   TYR F 311      39.179  51.924  -3.855  1.00 40.62 LIG-0.35  N 
ATOM     38 H    TYR F 311      39.128  51.156  -4.240  1.00 40.62 LIG 0.16  HD
ATOM     39  C   GLU F 310      40.166  52.794  -4.055  1.00 41.86 LIG 0.24  C 
ATOM     40 O    GLU F 310      40.259  53.832  -3.417  1.00 41.90 LIG-0.27  OA
BRANCH 39 41
ATOM     41  CA  GLU F 310      41.219  52.437  -5.102  1.00 43.14 LIG 0.18  C 
BRANCH 41 42
ATOM     42  CB  GLU F 310      42.495  51.982  -4.389  1.00 44.06 LIG 0.04  C 
BRANCH 42 43
ATOM     43  CG  GLU F 310      42.382  50.611  -3.743  1.00 45.60 LIG 0.12  C 
BRANCH 43 44
ATOM     44  CD  GLU F 310      43.297  49.570  -4.372  1.00 46.85 LIG 0.17  C 
ATOM     45 OE2  GLU F 310      44.146  49.968  -5.200  1.00 47.09 LIG-0.65  OA
ATOM     46 OE1  GLU F 310      43.161  48.362  -4.060  1.00 45.53 LIG-0.65  OA
ENDBRANCH 43 44
ENDBRANCH 42 43
ENDBRANCH 41 42
BRANCH 41 47
ATOM     47  N   GLU F 310      41.497  53.589  -5.974  1.00 43.23 LIG-0.35  N 
ATOM     48  C   VAL F 309      40.761  53.894  -7.049  1.00 44.16 LIG 0.26  C 
ATOM     49 O    VAL F 309      39.804  53.218  -7.434  1.00 43.83 LIG-0.27  OA
ATOM     50 H    GLU F 310      42.181  54.050  -5.728  1.00 43.23 LIG 0.16  HD
BRANCH 48 51
ATOM     51  CA  VAL F 309      41.160  55.162  -7.815  1.00 44.86 LIG 0.40  C 
ATOM     52  N   VAL F 309      40.876  54.980  -9.269  1.00 44.58 LIG 0.61  N 
BRANCH 51 53
ATOM     53  CB  VAL F 309      40.424  56.417  -7.262  1.00 44.54 LIG 0.03  C 
ATOM     54  CG2 VAL F 309      39.505  56.027  -6.111  1.00 44.44 LIG 0.01  C 
ATOM     55  CG1 VAL F 309      39.640  57.156  -8.344  1.00 43.50 LIG 0.01  C 
ENDBRANCH 51 53
ENDBRANCH 48 51
ENDBRANCH 41 47
ENDBRANCH 39 41
ENDBRANCH 36 37
BRANCH 36 56
ATOM     56  CB  TYR F 311      37.174  53.294  -3.550  1.00 38.48 LIG 0.07  C 
BRANCH 56 57
ATOM     57  CG  TYR F 311      36.412  52.805  -4.762  1.00 36.48 LIG-0.06  A 
ATOM     58  CD1 TYR F 311      35.141  52.253  -4.631  1.00 35.51 LIG 0.01  A 
ATOM     59  CE1 TYR F 311      34.437  51.801  -5.735  1.00 35.35 LIG 0.04  A 
ATOM     60  CZ  TYR F 311      35.007  51.886  -6.985  1.00 34.90 LIG 0.07  A 
ATOM     61  CE2 TYR F 311      36.268  52.425  -7.149  1.00 36.46 LIG 0.04  A 
ATOM     62  CD2 TYR F 311      36.969  52.876  -6.040  1.00 36.25 LIG 0.01  A 
BRANCH 60 63
ATOM     63 OH   TYR F 311      34.315  51.433  -8.073  1.00 38.07 LIG-0.36  OA
ATOM     64 HH   TYR F 311      33.516  51.287  -7.857  1.00 38.07 LIG 0.22  HD
ENDBRANCH 60 63
ENDBRANCH 56 57
ENDBRANCH 36 56
ENDBRANCH 1 36
TORSDOF 27
ENDMDL
MODEL 7
USER: ADFR SOLUTION from run 61
USER: SCORE 20.739433 LL:  -5.671 LR: -15.984 RR:   0.000 FEB:  -7.930
USER: RMSD 2.958665
USER: SEED 60
USER: STATUS no improvement in best in 9 clusters for 5 generations
USER: GENES 29
USER: genes 0 Translation |==|  0.54918 0.44629 0.54701
USER: genes 1 Rotation |==|  0.49240 0.50612 0.51166 0.99977
USER: genes 2 Torsion [C]-N--CA-[C] |==|  0.65379
USER: genes 3 Torsion [N]-CA--C-[N] |==|  0.19534
USER: genes 4 Torsion [C]-N--CA-[C] |==|  0.61652
USER: genes 5 Torsion [N]-CA--C-[N] |==|  0.39469
USER: genes 6 Torsion [C]-N--CA-[CB] |==|  0.82408
USER: genes 7 Torsion [N]-CA--CB-[CG] |==|  0.85274
USER: genes 8 Torsion [CA]-CB--CG-[CD2] |==|  0.47871
USER: genes 9 Torsion [N]-CA--C-[O] |==|  0.12503
USER: genes 10 Torsion [N]-CA--CB-[CG] |==|  0.33858
USER: genes 11 Torsion [CA]-CB--CG-[CD] |==|  0.65457
USER: genes 12 Torsion [CB]-CG--CD-[CE] |==|  0.46376
USER: genes 13 Torsion [CG]-CD--CE-[NZ] |==|  0.81494
USER: genes 14 Torsion [CD]-CE--NZ-[HZ2] |==|  0.40888
USER: genes 15 Torsion [N]-CA--CB-[CG2] |==|  0.60303
USER: genes 16 Torsion [CA]-CB--OG1-[HG1] |==|  0.36721
USER: genes 17 Torsion [N]-C--CA-[N] |==|  0.46905
USER: genes 18 Torsion [C]-CA--N-[C] |==|  0.55022
USER: genes 19 Torsion [N]-C--CA-[N] |==|  0.36909
USER: genes 20 Torsion [C]-CA--CB-[CG] |==|  0.19506
USER: genes 21 Torsion [CA]-CB--CG-[CD] |==|  0.33291
USER: genes 22 Torsion [CB]-CG--CD-[OE2] |==|  0.53340
USER: genes 23 Torsion [C]-CA--N-[C] |==|  0.76193
USER: genes 24 Torsion [N]-C--CA-[N] |==|  0.39194
USER: genes 25 Torsion [C]-CA--CB-[CG2] |==|  0.01655
USER: genes 26 Torsion [C]-CA--CB-[CG] |==|  0.82829
USER: genes 27 Torsion [CA]-CB--CG-[CD1] |==|  0.25660
USER: genes 28 Torsion [CE1]-CZ--OH-[HH] |==|  0.03335
ROOT
ATOM      1  C   TYR F 311      37.373  51.065  -2.393  1.00 39.57 LIG 0.24  C 
ATOM      2 O    TYR F 311      37.464  49.994  -3.000  1.00 35.87 LIG-0.27  OA
ATOM      3  N   THR F 312      36.575  51.255  -1.344  1.00 39.28 LIG-0.34  N 
ATOM      4 H    THR F 312      36.548  51.993  -0.904  1.00 39.28 LIG 0.16  HD
ENDROOT
BRANCH 3 5
ATOM      5  CA  THR F 312      35.666  50.238  -0.832  1.00 41.67 LIG 0.20  C 
BRANCH 5 6
ATOM      6  C   THR F 312      34.240  50.764  -0.777  1.00 45.40 LIG 0.24  C 
ATOM      7  N   LYS F 313      33.645  50.949  -1.944  1.00 48.10 LIG-0.35  N 
ATOM      8 H    LYS F 313      34.041  50.863  -2.702  1.00 48.10 LIG 0.16  HD
ATOM      9 O    THR F 312      33.678  50.967   0.297  1.00 48.99 LIG-0.27  OA
BRANCH 7 10
ATOM     10  CA  LYS F 313      32.241  51.320  -2.043  1.00 51.61 LIG 0.18  C 
BRANCH 10 11
ATOM     11  C   LYS F 313      31.577  50.522  -3.172  1.00 54.92 LIG 0.24  C 
ATOM     12 O    LYS F 313      32.194  50.276  -4.214  1.00 54.36 LIG-0.27  OA
ATOM     13  N   HIS F 314      30.325  50.119  -2.937  1.00 57.06 LIG-0.35  N 
ATOM     14 H    HIS F 314      29.904  50.309  -2.211  1.00 57.06 LIG 0.16  HD
BRANCH 13 15
ATOM     15  CA  HIS F 314      29.527  49.313  -3.876  1.00 57.78 LIG 0.17  C 
BRANCH 15 16
ATOM     16  CB  HIS F 314      29.271  50.077  -5.184  1.00 57.79 LIG 0.09  C 
BRANCH 16 17
ATOM     17  CG  HIS F 314      28.677  51.438  -4.987  1.00 61.61 LIG 0.06  A 
ATOM     18  CD2 HIS F 314      28.441  52.445  -5.863  1.00 62.97 LIG 0.14  A 
ATOM     19 NE2  HIS F 314      27.877  53.479  -5.152  1.00 63.36 LIG-0.25  NA
ATOM     20  CE1 HIS F 314      27.768  53.120  -3.885  1.00 61.50 LIG 0.23  A 
ATOM     21 ND1  HIS F 314      28.244  51.894  -3.757  1.00 63.00 LIG-0.24  NA
ENDBRANCH 16 17
ENDBRANCH 15 16
BRANCH 15 22
ATOM     22  C   HIS F 314      30.168  47.952  -4.168  1.00 59.91 LIG 0.22  C 
ATOM     23 O    HIS F 314      30.629  47.255  -3.257  1.00 59.00 LIG-0.29  OA
ENDBRANCH 15 22
ENDBRANCH 13 15
ENDBRANCH 10 11
BRANCH 10 24
ATOM     24  CB  LYS F 313      32.094  52.829  -2.264  1.00 49.70 LIG 0.04  C 
BRANCH 24 25
ATOM     25  CG  LYS F 313      31.339  53.178  -3.539  1.00 49.89 LIG 0.00  C 
BRANCH 25 26
ATOM     26  CD  LYS F 313      32.138  54.093  -4.453  1.00 49.58 LIG 0.03  C 
BRANCH 26 27
ATOM     27  CE  LYS F 313      31.509  54.165  -5.838  1.00 48.23 LIG 0.23  C 
BRANCH 27 28
ATOM     28  NZ  LYS F 313      31.595  52.862  -6.541  1.00 47.83 LIG-0.08  N 
ATOM     29 HZ2  LYS F 313      30.882  52.759  -7.063  1.00 47.83 LIG 0.27  HD
ATOM     30 HZ1  LYS F 313      31.622  52.203  -5.943  1.00 47.83 LIG 0.27  HD
ATOM     31 HZ3  LYS F 313      32.333  52.841  -7.039  1.00 47.83 LIG 0.27  HD
ENDBRANCH 27 28
ENDBRANCH 26 27
ENDBRANCH 25 26
ENDBRANCH 24 25
ENDBRANCH 10 24
ENDBRANCH 7 10
ENDBRANCH 5 6
BRANCH 5 32
ATOM     32  CB  THR F 312      36.039  49.834   0.605  1.00 41.09 LIG 0.15  C 
ATOM     33  CG2 THR F 312      35.823  48.348   0.833  1.00 40.88 LIG 0.04  C 
BRANCH 32 34
ATOM     34 OG1  THR F 312      37.414  50.156   0.837  1.00 43.07 LIG-0.39  OA
ATOM     35 HG1  THR F 312      37.488  50.563   1.568  1.00 43.07 LIG 0.21  HD
ENDBRANCH 32 34
ENDBRANCH 5 32
ENDBRANCH 3 5
BRANCH 1 36
ATOM     36  CA  TYR F 311      38.171  52.294  -2.834  1.00 39.31 LIG 0.18  C 
BRANCH 36 37
ATOM     37  N   TYR F 311      39.213  51.979  -3.809  1.00 40.62 LIG-0.35  N 
ATOM     38 H    TYR F 311      39.114  51.223  -4.207  1.00 40.62 LIG 0.16  HD
ATOM     39  C   GLU F 310      40.220  52.817  -4.040  1.00 41.86 LIG 0.24  C 
ATOM     40 O    GLU F 310      40.383  53.836  -3.386  1.00 41.90 LIG-0.27  OA
BRANCH 39 41
ATOM     41  CA  GLU F 310      41.207  52.446  -5.144  1.00 43.14 LIG 0.18  C 
BRANCH 41 42
ATOM     42  CB  GLU F 310      42.511  51.961  -4.504  1.00 44.06 LIG 0.04  C 
BRANCH 42 43
ATOM     43  CG  GLU F 310      42.392  50.610  -3.818  1.00 45.60 LIG 0.12  C 
BRANCH 43 44
ATOM     44  CD  GLU F 310      43.319  49.553  -4.401  1.00 46.85 LIG 0.17  C 
ATOM     45 OE2  GLU F 310      43.130  48.364  -4.060  1.00 47.09 LIG-0.65  OA
ATOM     46 OE1  GLU F 310      44.240  49.902  -5.178  1.00 45.53 LIG-0.65  OA
ENDBRANCH 43 44
ENDBRANCH 42 43
ENDBRANCH 41 42
BRANCH 41 47
ATOM     47  N   GLU F 310      41.462  53.598  -6.023  1.00 43.23 LIG-0.35  N 
ATOM     48  C   VAL F 309      40.690  53.910  -7.070  1.00 44.16 LIG 0.26  C 
ATOM     49 O    VAL F 309      39.716  53.241  -7.423  1.00 43.83 LIG-0.27  OA
ATOM     50 H    GLU F 310      42.157  54.054  -5.801  1.00 43.23 LIG 0.16  HD
BRANCH 48 51
ATOM     51  CA  VAL F 309      41.069  55.177  -7.848  1.00 44.86 LIG 0.40  C 
ATOM     52  N   VAL F 309      40.874  54.947  -9.310  1.00 44.58 LIG 0.61  N 
BRANCH 51 53
ATOM     53  CB  VAL F 309      40.246  56.408  -7.368  1.00 44.54 LIG 0.03  C 
ATOM     54  CG2 VAL F 309      39.398  56.037  -6.158  1.00 44.44 LIG 0.01  C 
ATOM     55  CG1 VAL F 309      39.370  56.989  -8.476  1.00 43.50 LIG 0.01  C 
ENDBRANCH 51 53
ENDBRANCH 48 51
ENDBRANCH 41 47
ENDBRANCH 39 41
ENDBRANCH 36 37
BRANCH 36 56
ATOM     56  CB  TYR F 311      37.205  53.325  -3.427  1.00 38.48 LIG 0.07  C 
BRANCH 56 57
ATOM     57  CG  TYR F 311      36.480  52.820  -4.654  1.00 36.48 LIG-0.06  A 
ATOM     58  CD1 TYR F 311      35.238  52.202  -4.546  1.00 35.51 LIG 0.01  A 
ATOM     59  CE1 TYR F 311      34.569  51.735  -5.665  1.00 35.35 LIG 0.04  A 
ATOM     60  CZ  TYR F 311      35.145  51.870  -6.907  1.00 34.90 LIG 0.07  A 
ATOM     61  CE2 TYR F 311      36.379  52.474  -7.048  1.00 36.46 LIG 0.04  A 
ATOM     62  CD2 TYR F 311      37.046  52.941  -5.925  1.00 36.25 LIG 0.01  A 
BRANCH 60 63
ATOM     63 OH   TYR F 311      34.488  51.401  -8.010  1.00 38.07 LIG-0.36  OA
ATOM     64 HH   TYR F 311      33.694  51.213  -7.806  1.00 38.07 LIG 0.22  HD
ENDBRANCH 60 63
ENDBRANCH 56 57
ENDBRANCH 36 56
ENDBRANCH 1 36
TORSDOF 27
ENDMDL
MODEL 8
USER: ADFR SOLUTION from run 154
USER: SCORE 19.457828 LL:  -4.682 LR: -15.695 RR:   0.000 FEB:  -7.640
USER: RMSD 1.989907
USER: SEED 153
USER: STATUS no improvement in best in 7 clusters for 5 generations
USER: GENES 29
USER: genes 0 Translation |==|  0.54271 0.43339 0.55842
USER: genes 1 Rotation |==|  0.53574 0.56551 0.48409 0.99414
USER: genes 2 Torsion [C]-N--CA-[C] |==|  0.69228
USER: genes 3 Torsion [N]-CA--C-[N] |==|  0.34274
USER: genes 4 Torsion [C]-N--CA-[C] |==|  0.63697
USER: genes 5 Torsion [N]-CA--C-[N] |==|  0.25525
USER: genes 6 Torsion [C]-N--CA-[CB] |==|  0.85708
USER: genes 7 Torsion [N]-CA--CB-[CG] |==|  0.54310
USER: genes 8 Torsion [CA]-CB--CG-[CD2] |==|  0.29343
USER: genes 9 Torsion [N]-CA--C-[O] |==|  0.12605
USER: genes 10 Torsion [N]-CA--CB-[CG] |==|  0.08064
USER: genes 11 Torsion [CA]-CB--CG-[CD] |==|  0.42686
USER: genes 12 Torsion [CB]-CG--CD-[CE] |==|  0.16410
USER: genes 13 Torsion [CG]-CD--CE-[NZ] |==|  0.36278
USER: genes 14 Torsion [CD]-CE--NZ-[HZ2] |==|  0.85465
USER: genes 15 Torsion [N]-CA--CB-[CG2] |==|  0.61152
USER: genes 16 Torsion [CA]-CB--OG1-[HG1] |==|  0.69580
USER: genes 17 Torsion [N]-C--CA-[N] |==|  0.42073
USER: genes 18 Torsion [C]-CA--N-[C] |==|  0.57887
USER: genes 19 Torsion [N]-C--CA-[N] |==|  0.34034
USER: genes 20 Torsion [C]-CA--CB-[CG] |==|  0.47651
USER: genes 21 Torsion [CA]-CB--CG-[CD] |==|  0.64673
USER: genes 22 Torsion [CB]-CG--CD-[OE2] |==|  0.58035
USER: genes 23 Torsion [C]-CA--N-[C] |==|  0.76126
USER: genes 24 Torsion [N]-C--CA-[N] |==|  0.39120
USER: genes 25 Torsion [C]-CA--CB-[CG2] |==|  0.02724
USER: genes 26 Torsion [C]-CA--CB-[CG] |==|  0.82210
USER: genes 27 Torsion [CA]-CB--CG-[CD1] |==|  0.25405
USER: genes 28 Torsion [CE1]-CZ--OH-[HH] |==|  0.03238
ROOT
ATOM      1  C   TYR F 311      37.193  50.813  -2.171  1.00 39.57 LIG 0.24  C 
ATOM      2 O    TYR F 311      37.000  49.864  -2.935  1.00 35.87 LIG-0.27  OA
ATOM      3  N   THR F 312      36.688  50.888  -0.941  1.00 39.28 LIG-0.34  N 
ATOM      4 H    THR F 312      36.861  51.535  -0.403  1.00 39.28 LIG 0.16  HD
ENDROOT
BRANCH 3 5
ATOM      5  CA  THR F 312      35.791  49.886  -0.379  1.00 41.67 LIG 0.20  C 
BRANCH 5 6
ATOM      6  C   THR F 312      34.388  50.448  -0.211  1.00 45.40 LIG 0.24  C 
ATOM      7  N   LYS F 313      33.420  49.783  -0.820  1.00 48.10 LIG-0.35  N 
ATOM      8 H    LYS F 313      33.556  49.120  -1.350  1.00 48.10 LIG 0.16  HD
ATOM      9 O    THR F 312      34.180  51.442   0.481  1.00 48.99 LIG-0.27  OA
BRANCH 7 10
ATOM     10  CA  LYS F 313      32.017  50.126  -0.638  1.00 51.61 LIG 0.18  C 
BRANCH 10 11
ATOM     11  C   LYS F 313      31.217  48.860  -0.310  1.00 54.92 LIG 0.24  C 
ATOM     12 O    LYS F 313      30.755  48.156  -1.215  1.00 54.36 LIG-0.27  OA
ATOM     13  N   HIS F 314      31.078  48.584   0.991  1.00 57.06 LIG-0.35  N 
ATOM     14 H    HIS F 314      31.396  49.091   1.609  1.00 57.06 LIG 0.16  HD
BRANCH 13 15
ATOM     15  CA  HIS F 314      30.378  47.400   1.514  1.00 57.78 LIG 0.17  C 
BRANCH 15 16
ATOM     16  CB  HIS F 314      28.978  47.265   0.896  1.00 57.79 LIG 0.09  C 
BRANCH 16 17
ATOM     17  CG  HIS F 314      28.078  46.320   1.632  1.00 61.61 LIG 0.06  A 
ATOM     18  CD2 HIS F 314      27.022  46.547   2.451  1.00 62.97 LIG 0.14  A 
ATOM     19 NE2  HIS F 314      26.552  45.320   2.859  1.00 63.36 LIG-0.25  NA
ATOM     20  CE1 HIS F 314      27.290  44.372   2.309  1.00 61.50 LIG 0.23  A 
ATOM     21 ND1  HIS F 314      28.219  44.947   1.565  1.00 63.00 LIG-0.24  NA
ENDBRANCH 16 17
ENDBRANCH 15 16
BRANCH 15 22
ATOM     22  C   HIS F 314      31.180  46.109   1.307  1.00 59.91 LIG 0.22  C 
ATOM     23 O    HIS F 314      32.388  46.062   1.564  1.00 59.00 LIG-0.29  OA
ENDBRANCH 15 22
ENDBRANCH 13 15
ENDBRANCH 10 11
BRANCH 10 24
ATOM     24  CB  LYS F 313      31.466  50.827  -1.885  1.00 49.70 LIG 0.04  C 
BRANCH 24 25
ATOM     25  CG  LYS F 313      32.164  50.403  -3.170  1.00 49.89 LIG 0.00  C 
BRANCH 25 26
ATOM     26  CD  LYS F 313      31.273  50.561  -4.392  1.00 49.58 LIG 0.03  C 
BRANCH 26 27
ATOM     27  CE  LYS F 313      30.825  52.006  -4.558  1.00 48.23 LIG 0.23  C 
BRANCH 27 28
ATOM     28  NZ  LYS F 313      31.047  52.487  -5.943  1.00 47.83 LIG-0.08  N 
ATOM     29 HZ2  LYS F 313      31.892  52.333  -6.179  1.00 47.83 LIG 0.27  HD
ATOM     30 HZ1  LYS F 313      30.882  53.361  -5.984  1.00 47.83 LIG 0.27  HD
ATOM     31 HZ3  LYS F 313      30.501  52.056  -6.498  1.00 47.83 LIG 0.27  HD
ENDBRANCH 27 28
ENDBRANCH 26 27
ENDBRANCH 25 26
ENDBRANCH 24 25
ENDBRANCH 10 24
ENDBRANCH 7 10
ENDBRANCH 5 6
BRANCH 5 32
ATOM     32  CB  THR F 312      36.257  49.447   1.020  1.00 41.09 LIG 0.15  C 
ATOM     33  CG2 THR F 312      36.088  47.950   1.212  1.00 40.88 LIG 0.04  C 
BRANCH 32 34
ATOM     34 OG1  THR F 312      37.637  49.794   1.180  1.00 43.07 LIG-0.39  OA
ATOM     35 HG1  THR F 312      38.104  49.096   1.181  1.00 43.07 LIG 0.21  HD
ENDBRANCH 32 34
ENDBRANCH 5 32
ENDBRANCH 3 5
BRANCH 1 36
ATOM     36  CA  TYR F 311      38.027  52.020  -2.605  1.00 39.31 LIG 0.18  C 
BRANCH 36 37
ATOM     37  N   TYR F 311      39.061  51.680  -3.581  1.00 40.62 LIG-0.35  N 
ATOM     38 H    TYR F 311      38.873  51.004  -4.080  1.00 40.62 LIG 0.16  HD
ATOM     39  C   GLU F 310      40.189  52.378  -3.665  1.00 41.86 LIG 0.24  C 
ATOM     40 O    GLU F 310      40.466  53.269  -2.875  1.00 41.90 LIG-0.27  OA
BRANCH 39 41
ATOM     41  CA  GLU F 310      41.167  52.008  -4.779  1.00 43.14 LIG 0.18  C 
BRANCH 41 42
ATOM     42  CB  GLU F 310      42.463  51.488  -4.151  1.00 44.06 LIG 0.04  C 
BRANCH 42 43
ATOM     43  CG  GLU F 310      43.438  50.897  -5.155  1.00 45.60 LIG 0.12  C 
BRANCH 43 44
ATOM     44  CD  GLU F 310      43.901  49.493  -4.794  1.00 46.85 LIG 0.17  C 
ATOM     45 OE2  GLU F 310      45.038  49.139  -5.178  1.00 47.09 LIG-0.65  OA
ATOM     46 OE1  GLU F 310      43.133  48.738  -4.149  1.00 45.53 LIG-0.65  OA
ENDBRANCH 43 44
ENDBRANCH 42 43
ENDBRANCH 41 42
BRANCH 41 47
ATOM     47  N   GLU F 310      41.440  53.169  -5.639  1.00 43.23 LIG-0.35  N 
ATOM     48  C   VAL F 309      40.674  53.510  -6.682  1.00 44.16 LIG 0.26  C 
ATOM     49 O    VAL F 309      39.689  52.862  -7.045  1.00 43.83 LIG-0.27  OA
ATOM     50 H    GLU F 310      42.142  53.611  -5.410  1.00 43.23 LIG 0.16  HD
BRANCH 48 51
ATOM     51  CA  VAL F 309      41.074  54.782  -7.439  1.00 44.86 LIG 0.40  C 
ATOM     52  N   VAL F 309      40.882  54.576  -8.905  1.00 44.58 LIG 0.61  N 
BRANCH 51 53
ATOM     53  CB  VAL F 309      40.265  56.018  -6.945  1.00 44.54 LIG 0.03  C 
ATOM     54  CG2 VAL F 309      39.480  55.666  -5.687  1.00 44.44 LIG 0.01  C 
ATOM     55  CG1 VAL F 309      39.331  56.569  -8.020  1.00 43.50 LIG 0.01  C 
ENDBRANCH 51 53
ENDBRANCH 48 51
ENDBRANCH 41 47
ENDBRANCH 39 41
ENDBRANCH 36 37
BRANCH 36 56
ATOM     56  CB  TYR F 311      37.093  53.082  -3.193  1.00 38.48 LIG 0.07  C 
BRANCH 56 57
ATOM     57  CG  TYR F 311      36.395  52.623  -4.455  1.00 36.48 LIG-0.06  A 
ATOM     58  CD1 TYR F 311      35.150  52.004  -4.396  1.00 35.51 LIG 0.01  A 
ATOM     59  CE1 TYR F 311      34.505  51.579  -5.546  1.00 35.35 LIG 0.04  A 
ATOM     60  CZ  TYR F 311      35.109  51.758  -6.769  1.00 34.90 LIG 0.07  A 
ATOM     61  CE2 TYR F 311      36.347  52.365  -6.861  1.00 36.46 LIG 0.04  A 
ATOM     62  CD2 TYR F 311      36.988  52.789  -5.707  1.00 36.25 LIG 0.01  A 
BRANCH 60 63
ATOM     63 OH   TYR F 311      34.476  51.331  -7.903  1.00 38.07 LIG-0.36  OA
ATOM     64 HH   TYR F 311      33.680  51.133  -7.722  1.00 38.07 LIG 0.22  HD
ENDBRANCH 60 63
ENDBRANCH 56 57
ENDBRANCH 36 56
ENDBRANCH 1 36
TORSDOF 27
ENDMDL
MODEL 9
USER: ADFR SOLUTION from run 134
USER: SCORE 20.125429 LL:  -5.049 LR: -15.482 RR:   0.000 FEB:  -7.428
USER: RMSD 2.760417
USER: SEED 133
USER: STATUS searching
USER: GENES 29
USER: genes 0 Translation |==|  0.55197 0.44757 0.55222
USER: genes 1 Rotation |==|  0.51010 0.54186 0.50319 0.99813
USER: genes 2 Torsion [C]-N--CA-[C] |==|  0.67329
USER: genes 3 Torsion [N]-CA--C-[N] |==|  0.38924
USER: genes 4 Torsion [C]-N--CA-[C] |==|  0.78969
USER: genes 5 Torsion [N]-CA--C-[N] |==|  0.93366
USER: genes 6 Torsion [C]-N--CA-[CB] |==|  0.38727
USER: genes 7 Torsion [N]-CA--CB-[CG] |==|  0.87753
USER: genes 8 Torsion [CA]-CB--CG-[CD2] |==|  0.38288
USER: genes 9 Torsion [N]-CA--C-[O] |==|  0.03760
USER: genes 10 Torsion [N]-CA--CB-[CG] |==|  0.67510
USER: genes 11 Torsion [CA]-CB--CG-[CD] |==|  0.30931
USER: genes 12 Torsion [CB]-CG--CD-[CE] |==|  0.46621
USER: genes 13 Torsion [CG]-CD--CE-[NZ] |==|  0.30074
USER: genes 14 Torsion [CD]-CE--NZ-[HZ2] |==|  0.42120
USER: genes 15 Torsion [N]-CA--CB-[CG2] |==|  0.59895
USER: genes 16 Torsion [CA]-CB--OG1-[HG1] |==|  0.89372
USER: genes 17 Torsion [N]-C--CA-[N] |==|  0.44463
USER: genes 18 Torsion [C]-CA--N-[C] |==|  0.55113
USER: genes 19 Torsion [N]-C--CA-[N] |==|  0.37270
USER: genes 20 Torsion [C]-CA--CB-[CG] |==|  0.19388
USER: genes 21 Torsion [CA]-CB--CG-[CD] |==|  0.34146
USER: genes 22 Torsion [CB]-CG--CD-[OE2] |==|  0.03109
USER: genes 23 Torsion [C]-CA--N-[C] |==|  0.75590
USER: genes 24 Torsion [N]-C--CA-[N] |==|  0.40158
USER: genes 25 Torsion [C]-CA--CB-[CG2] |==|  0.00108
USER: genes 26 Torsion [C]-CA--CB-[CG] |==|  0.82677
USER: genes 27 Torsion [CA]-CB--CG-[CD1] |==|  0.25969
USER: genes 28 Torsion [CE1]-CZ--OH-[HH] |==|  0.04804
ROOT
ATOM      1  C   TYR F 311      37.450  51.090  -2.292  1.00 39.57 LIG 0.24  C 
ATOM      2 O    TYR F 311      37.410  50.061  -2.972  1.00 35.87 LIG-0.27  OA
ATOM      3  N   THR F 312      36.819  51.232  -1.128  1.00 39.28 LIG-0.34  N 
ATOM      4 H    THR F 312      36.885  51.938  -0.643  1.00 39.28 LIG 0.16  HD
ENDROOT
BRANCH 3 5
ATOM      5  CA  THR F 312      35.950  50.211  -0.556  1.00 41.67 LIG 0.20  C 
BRANCH 5 6
ATOM      6  C   THR F 312      34.525  50.726  -0.421  1.00 45.40 LIG 0.24  C 
ATOM      7  N   LYS F 313      33.567  49.863  -0.717  1.00 48.10 LIG-0.35  N 
ATOM      8 H    LYS F 313      33.712  49.082  -1.045  1.00 48.10 LIG 0.16  HD
ATOM      9 O    THR F 312      34.295  51.867  -0.027  1.00 48.99 LIG-0.27  OA
BRANCH 7 10
ATOM     10  CA  LYS F 313      32.160  50.172  -0.507  1.00 51.61 LIG 0.18  C 
BRANCH 10 11
ATOM     11  C   LYS F 313      31.831  50.074   0.988  1.00 54.92 LIG 0.24  C 
ATOM     12 O    LYS F 313      30.864  50.683   1.459  1.00 54.36 LIG-0.27  OA
ATOM     13  N   HIS F 314      32.640  49.292   1.708  1.00 57.06 LIG-0.35  N 
ATOM     14 H    HIS F 314      33.317  48.884   1.367  1.00 57.06 LIG 0.16  HD
BRANCH 13 15
ATOM     15  CA  HIS F 314      32.475  49.037   3.149  1.00 57.78 LIG 0.17  C 
BRANCH 15 16
ATOM     16  CB  HIS F 314      32.752  47.564   3.488  1.00 57.79 LIG 0.09  C 
BRANCH 16 17
ATOM     17  CG  HIS F 314      32.129  46.593   2.532  1.00 61.61 LIG 0.06  A 
ATOM     18  CD2 HIS F 314      32.611  45.457   1.972  1.00 62.97 LIG 0.14  A 
ATOM     19 NE2  HIS F 314      31.619  44.948   1.166  1.00 63.36 LIG-0.25  NA
ATOM     20  CE1 HIS F 314      30.565  45.742   1.229  1.00 61.50 LIG 0.23  A 
ATOM     21 ND1  HIS F 314      30.845  46.743   2.045  1.00 63.00 LIG-0.24  NA
ENDBRANCH 16 17
ENDBRANCH 15 16
BRANCH 15 22
ATOM     22  C   HIS F 314      33.350  49.957   4.008  1.00 59.91 LIG 0.22  C 
ATOM     23 O    HIS F 314      33.898  50.953   3.522  1.00 59.00 LIG-0.29  OA
ENDBRANCH 15 22
ENDBRANCH 13 15
ENDBRANCH 10 11
BRANCH 10 24
ATOM     24  CB  LYS F 313      31.271  49.239  -1.337  1.00 49.70 LIG 0.04  C 
BRANCH 24 25
ATOM     25  CG  LYS F 313      30.443  49.973  -2.383  1.00 49.89 LIG 0.00  C 
BRANCH 25 26
ATOM     26  CD  LYS F 313      30.892  49.659  -3.801  1.00 49.58 LIG 0.03  C 
BRANCH 26 27
ATOM     27  CE  LYS F 313      29.875  50.159  -4.818  1.00 48.23 LIG 0.23  C 
BRANCH 27 28
ATOM     28  NZ  LYS F 313      30.383  51.338  -5.559  1.00 47.83 LIG-0.08  N 
ATOM     29 HZ2  LYS F 313      30.013  51.363  -6.368  1.00 47.83 LIG 0.27  HD
ATOM     30 HZ1  LYS F 313      31.268  51.280  -5.639  1.00 47.83 LIG 0.27  HD
ATOM     31 HZ3  LYS F 313      30.174  52.081  -5.115  1.00 47.83 LIG 0.27  HD
ENDBRANCH 27 28
ENDBRANCH 26 27
ENDBRANCH 25 26
ENDBRANCH 24 25
ENDBRANCH 10 24
ENDBRANCH 7 10
ENDBRANCH 5 6
BRANCH 5 32
ATOM     32  CB  THR F 312      36.410  49.822   0.860  1.00 41.09 LIG 0.15  C 
ATOM     33  CG2 THR F 312      36.188  48.343   1.124  1.00 40.88 LIG 0.04  C 
BRANCH 32 34
ATOM     34 OG1  THR F 312      37.802  50.126   0.996  1.00 43.07 LIG-0.39  OA
ATOM     35 HG1  THR F 312      38.200  49.948   0.278  1.00 43.07 LIG 0.21  HD
ENDBRANCH 32 34
ENDBRANCH 5 32
ENDBRANCH 3 5
BRANCH 1 36
ATOM     36  CA  TYR F 311      38.228  52.320  -2.763  1.00 39.31 LIG 0.18  C 
BRANCH 36 37
ATOM     37  N   TYR F 311      39.252  52.003  -3.757  1.00 40.62 LIG-0.35  N 
ATOM     38 H    TYR F 311      39.149  51.243  -4.146  1.00 40.62 LIG 0.16  HD
ATOM     39  C   GLU F 310      40.250  52.844  -4.014  1.00 41.86 LIG 0.24  C 
ATOM     40 O    GLU F 310      40.420  53.870  -3.371  1.00 41.90 LIG-0.27  OA
BRANCH 39 41
ATOM     41  CA  GLU F 310      41.217  52.469  -5.134  1.00 43.14 LIG 0.18  C 
BRANCH 41 42
ATOM     42  CB  GLU F 310      42.524  51.965  -4.516  1.00 44.06 LIG 0.04  C 
BRANCH 42 43
ATOM     43  CG  GLU F 310      42.397  50.616  -3.828  1.00 45.60 LIG 0.12  C 
BRANCH 43 44
ATOM     44  CD  GLU F 310      43.352  49.565  -4.377  1.00 46.85 LIG 0.17  C 
ATOM     45 OE2  GLU F 310      44.257  49.951  -5.149  1.00 47.09 LIG-0.65  OA
ATOM     46 OE1  GLU F 310      43.192  48.362  -4.060  1.00 45.53 LIG-0.65  OA
ENDBRANCH 43 44
ENDBRANCH 42 43
ENDBRANCH 41 42
BRANCH 41 47
ATOM     47  N   GLU F 310      41.473  53.624  -6.010  1.00 43.23 LIG-0.35  N 
ATOM     48  C   VAL F 309      40.713  53.927  -7.069  1.00 44.16 LIG 0.26  C 
ATOM     49 O    VAL F 309      39.752  53.248  -7.436  1.00 43.83 LIG-0.27  OA
ATOM     50 H    GLU F 310      42.158  54.088  -5.777  1.00 43.23 LIG 0.16  HD
BRANCH 48 51
ATOM     51  CA  VAL F 309      41.090  55.198  -7.840  1.00 44.86 LIG 0.40  C 
ATOM     52  N   VAL F 309      40.840  54.994  -9.298  1.00 44.58 LIG 0.61  N 
BRANCH 51 53
ATOM     53  CB  VAL F 309      40.309  56.438  -7.315  1.00 44.54 LIG 0.03  C 
ATOM     54  CG2 VAL F 309      39.390  56.035  -6.167  1.00 44.44 LIG 0.01  C 
ATOM     55  CG1 VAL F 309      39.512  57.133  -8.416  1.00 43.50 LIG 0.01  C 
ENDBRANCH 51 53
ENDBRANCH 48 51
ENDBRANCH 41 47
ENDBRANCH 39 41
ENDBRANCH 36 37
BRANCH 36 56
ATOM     56  CB  TYR F 311      37.241  53.336  -3.348  1.00 38.48 LIG 0.07  C 
BRANCH 56 57
ATOM     57  CG  TYR F 311      36.504  52.814  -4.562  1.00 36.48 LIG-0.06  A 
ATOM     58  CD1 TYR F 311      35.261  52.202  -4.434  1.00 35.51 LIG 0.01  A 
ATOM     59  CE1 TYR F 311      34.581  51.720  -5.541  1.00 35.35 LIG 0.04  A 
ATOM     60  CZ  TYR F 311      35.148  51.833  -6.789  1.00 34.90 LIG 0.07  A 
ATOM     61  CE2 TYR F 311      36.383  52.432  -6.950  1.00 36.46 LIG 0.04  A 
ATOM     62  CD2 TYR F 311      37.060  52.914  -5.839  1.00 36.25 LIG 0.01  A 
BRANCH 60 63
ATOM     63 OH   TYR F 311      34.480  51.350  -7.880  1.00 38.07 LIG-0.36  OA
ATOM     64 HH   TYR F 311      33.671  51.236  -7.685  1.00 38.07 LIG 0.22  HD
ENDBRANCH 60 63
ENDBRANCH 56 57
ENDBRANCH 36 56
ENDBRANCH 1 36
TORSDOF 27
ENDMDL
MODEL 10
USER: ADFR SOLUTION from run 134
USER: SCORE 20.335705 LL:  -5.377 LR: -15.409 RR:   0.000 FEB:  -7.355
USER: RMSD 2.568488
USER: SEED 133
USER: STATUS searching
USER: GENES 29
USER: genes 0 Translation |==|  0.55134 0.44394 0.55181
USER: genes 1 Rotation |==|  0.51201 0.54568 0.50643 0.99772
USER: genes 2 Torsion [C]-N--CA-[C] |==|  0.68384
USER: genes 3 Torsion [N]-CA--C-[N] |==|  0.32912
USER: genes 4 Torsion [C]-N--CA-[C] |==|  0.75614
USER: genes 5 Torsion [N]-CA--C-[N] |==|  0.97498
USER: genes 6 Torsion [C]-N--CA-[CB] |==|  0.82251
USER: genes 7 Torsion [N]-CA--CB-[CG] |==|  0.90479
USER: genes 8 Torsion [CA]-CB--CG-[CD2] |==|  0.34657
USER: genes 9 Torsion [N]-CA--C-[O] |==|  0.25344
USER: genes 10 Torsion [N]-CA--CB-[CG] |==|  0.68518
USER: genes 11 Torsion [CA]-CB--CG-[CD] |==|  0.29821
USER: genes 12 Torsion [CB]-CG--CD-[CE] |==|  0.53504
USER: genes 13 Torsion [CG]-CD--CE-[NZ] |==|  0.59478
USER: genes 14 Torsion [CD]-CE--NZ-[HZ2] |==|  0.88007
USER: genes 15 Torsion [N]-CA--CB-[CG2] |==|  0.59951
USER: genes 16 Torsion [CA]-CB--OG1-[HG1] |==|  0.52343
USER: genes 17 Torsion [N]-C--CA-[N] |==|  0.44288
USER: genes 18 Torsion [C]-CA--N-[C] |==|  0.55256
USER: genes 19 Torsion [N]-C--CA-[N] |==|  0.37325
USER: genes 20 Torsion [C]-CA--CB-[CG] |==|  0.18925
USER: genes 21 Torsion [CA]-CB--CG-[CD] |==|  0.34185
USER: genes 22 Torsion [CB]-CG--CD-[OE2] |==|  0.03279
USER: genes 23 Torsion [C]-CA--N-[C] |==|  0.75615
USER: genes 24 Torsion [N]-C--CA-[N] |==|  0.40108
USER: genes 25 Torsion [C]-CA--CB-[CG2] |==|  0.00172
USER: genes 26 Torsion [C]-CA--CB-[CG] |==|  0.82267
USER: genes 27 Torsion [CA]-CB--CG-[CD1] |==|  0.25665
USER: genes 28 Torsion [CE1]-CZ--OH-[HH] |==|  0.03250
ROOT
ATOM      1  C   TYR F 311      37.433  51.019  -2.300  1.00 39.57 LIG 0.24  C 
ATOM      2 O    TYR F 311      37.395  49.996  -2.989  1.00 35.87 LIG-0.27  OA
ATOM      3  N   THR F 312      36.817  51.143  -1.126  1.00 39.28 LIG-0.34  N 
ATOM      4 H    THR F 312      36.882  51.846  -0.635  1.00 39.28 LIG 0.16  HD
ENDROOT
BRANCH 3 5
ATOM      5  CA  THR F 312      35.971  50.107  -0.549  1.00 41.67 LIG 0.20  C 
BRANCH 5 6
ATOM      6  C   THR F 312      34.523  50.569  -0.475  1.00 45.40 LIG 0.24  C 
ATOM      7  N   LYS F 313      33.652  49.858  -1.171  1.00 48.10 LIG-0.35  N 
ATOM      8 H    LYS F 313      33.871  49.221  -1.705  1.00 48.10 LIG 0.16  HD
ATOM      9 O    THR F 312      34.196  51.526   0.223  1.00 48.99 LIG-0.27  OA
BRANCH 7 10
ATOM     10  CA  LYS F 313      32.219  50.101  -1.089  1.00 51.61 LIG 0.18  C 
BRANCH 10 11
ATOM     11  C   LYS F 313      31.625  49.283   0.064  1.00 54.92 LIG 0.24  C 
ATOM     12 O    LYS F 313      30.452  49.452   0.416  1.00 54.36 LIG-0.27  OA
ATOM     13  N   HIS F 314      32.449  48.394   0.627  1.00 57.06 LIG-0.35  N 
ATOM     14 H    HIS F 314      33.267  48.297   0.379  1.00 57.06 LIG 0.16  HD
BRANCH 13 15
ATOM     15  CA  HIS F 314      32.064  47.489   1.722  1.00 57.78 LIG 0.17  C 
BRANCH 15 16
ATOM     16  CB  HIS F 314      31.702  48.274   2.992  1.00 57.79 LIG 0.09  C 
BRANCH 16 17
ATOM     17  CG  HIS F 314      32.510  49.522   3.184  1.00 61.61 LIG 0.06  A 
ATOM     18  CD2 HIS F 314      32.133  50.812   3.360  1.00 62.97 LIG 0.14  A 
ATOM     19 NE2  HIS F 314      33.281  51.557   3.489  1.00 63.36 LIG-0.25  NA
ATOM     20  CE1 HIS F 314      34.327  50.755   3.399  1.00 61.50 LIG 0.23  A 
ATOM     21 ND1  HIS F 314      33.891  49.521   3.214  1.00 63.00 LIG-0.24  NA
ENDBRANCH 16 17
ENDBRANCH 15 16
BRANCH 15 22
ATOM     22  C   HIS F 314      30.915  46.553   1.328  1.00 59.91 LIG 0.22  C 
ATOM     23 O    HIS F 314      31.139  45.439   0.840  1.00 59.00 LIG-0.29  OA
ENDBRANCH 15 22
ENDBRANCH 13 15
ENDBRANCH 10 11
BRANCH 10 24
ATOM     24  CB  LYS F 313      31.536  49.768  -2.420  1.00 49.70 LIG 0.04  C 
BRANCH 24 25
ATOM     25  CG  LYS F 313      30.961  50.990  -3.123  1.00 49.89 LIG 0.00  C 
BRANCH 25 26
ATOM     26  CD  LYS F 313      31.772  51.390  -4.345  1.00 49.58 LIG 0.03  C 
BRANCH 26 27
ATOM     27  CE  LYS F 313      31.368  52.772  -4.840  1.00 48.23 LIG 0.23  C 
BRANCH 27 28
ATOM     28  NZ  LYS F 313      31.458  52.868  -6.316  1.00 47.83 LIG-0.08  N 
ATOM     29 HZ2  LYS F 313      32.210  52.481  -6.594  1.00 47.83 LIG 0.27  HD
ATOM     30 HZ1  LYS F 313      31.457  53.724  -6.559  1.00 47.83 LIG 0.27  HD
ATOM     31 HZ3  LYS F 313      30.759  52.456  -6.684  1.00 47.83 LIG 0.27  HD
ENDBRANCH 27 28
ENDBRANCH 26 27
ENDBRANCH 25 26
ENDBRANCH 24 25
ENDBRANCH 10 24
ENDBRANCH 7 10
ENDBRANCH 5 6
BRANCH 5 32
ATOM     32  CB  THR F 312      36.399  49.778   0.892  1.00 41.09 LIG 0.15  C 
ATOM     33  CG2 THR F 312      36.230  48.299   1.192  1.00 40.88 LIG 0.04  C 
BRANCH 32 34
ATOM     34 OG1  THR F 312      37.772  50.145   1.063  1.00 43.07 LIG-0.39  OA
ATOM     35 HG1  THR F 312      38.047  49.865   1.806  1.00 43.07 LIG 0.21  HD
ENDBRANCH 32 34
ENDBRANCH 5 32
ENDBRANCH 3 5
BRANCH 1 36
ATOM     36  CA  TYR F 311      38.188  52.263  -2.772  1.00 39.31 LIG 0.18  C 
BRANCH 36 37
ATOM     37  N   TYR F 311      39.211  51.965  -3.773  1.00 40.62 LIG-0.35  N 
ATOM     38 H    TYR F 311      39.114  51.208  -4.169  1.00 40.62 LIG 0.16  HD
ATOM     39  C   GLU F 310      40.199  52.819  -4.026  1.00 41.86 LIG 0.24  C 
ATOM     40 O    GLU F 310      40.362  53.840  -3.375  1.00 41.90 LIG-0.27  OA
BRANCH 39 41
ATOM     41  CA  GLU F 310      41.165  52.464  -5.155  1.00 43.14 LIG 0.18  C 
BRANCH 41 42
ATOM     42  CB  GLU F 310      42.478  51.962  -4.547  1.00 44.06 LIG 0.04  C 
BRANCH 42 43
ATOM     43  CG  GLU F 310      42.354  50.623  -3.839  1.00 45.60 LIG 0.12  C 
BRANCH 43 44
ATOM     44  CD  GLU F 310      43.299  49.562  -4.385  1.00 46.85 LIG 0.17  C 
ATOM     45 OE2  GLU F 310      44.205  49.936  -5.163  1.00 47.09 LIG-0.65  OA
ATOM     46 OE1  GLU F 310      43.132  48.362  -4.059  1.00 45.53 LIG-0.65  OA
ENDBRANCH 43 44
ENDBRANCH 42 43
ENDBRANCH 41 42
BRANCH 41 47
ATOM     47  N   GLU F 310      41.409  53.631  -6.017  1.00 43.23 LIG-0.35  N 
ATOM     48  C   VAL F 309      40.643  53.942  -7.069  1.00 44.16 LIG 0.26  C 
ATOM     49 O    VAL F 309      39.684  53.260  -7.440  1.00 43.83 LIG-0.27  OA
ATOM     50 H    GLU F 310      42.093  54.096  -5.782  1.00 43.23 LIG 0.16  HD
BRANCH 48 51
ATOM     51  CA  VAL F 309      41.008  55.224  -7.827  1.00 44.86 LIG 0.40  C 
ATOM     52  N   VAL F 309      40.756  55.034  -9.287  1.00 44.58 LIG 0.61  N 
BRANCH 51 53
ATOM     53  CB  VAL F 309      40.218  56.451  -7.286  1.00 44.54 LIG 0.03  C 
ATOM     54  CG2 VAL F 309      39.309  56.030  -6.137  1.00 44.44 LIG 0.01  C 
ATOM     55  CG1 VAL F 309      39.408  57.149  -8.377  1.00 43.50 LIG 0.01  C 
ENDBRANCH 51 53
ENDBRANCH 48 51
ENDBRANCH 41 47
ENDBRANCH 39 41
ENDBRANCH 36 37
BRANCH 36 56
ATOM     56  CB  TYR F 311      37.181  53.265  -3.348  1.00 38.48 LIG 0.07  C 
BRANCH 56 57
ATOM     57  CG  TYR F 311      36.470  52.749  -4.580  1.00 36.48 LIG-0.06  A 
ATOM     58  CD1 TYR F 311      35.253  52.082  -4.476  1.00 35.51 LIG 0.01  A 
ATOM     59  CE1 TYR F 311      34.598  51.605  -5.599  1.00 35.35 LIG 0.04  A 
ATOM     60  CZ  TYR F 311      35.164  51.778  -6.841  1.00 34.90 LIG 0.07  A 
ATOM     61  CE2 TYR F 311      36.374  52.431  -6.978  1.00 36.46 LIG 0.04  A 
ATOM     62  CD2 TYR F 311      37.026  52.908  -5.851  1.00 36.25 LIG 0.01  A 
BRANCH 60 63
ATOM     63 OH   TYR F 311      34.521  51.300  -7.948  1.00 38.07 LIG-0.36  OA
ATOM     64 HH   TYR F 311      33.738  51.076  -7.742  1.00 38.07 LIG 0.22  HD
ENDBRANCH 60 63
ENDBRANCH 56 57
ENDBRANCH 36 56
ENDBRANCH 1 36
TORSDOF 27
ENDMDL
MODEL 11
USER: ADFR SOLUTION from run 138
USER: SCORE 19.330134 LL:  -5.218 LR: -15.348 RR:   0.000 FEB:  -7.294
USER: RMSD 3.645877
USER: SEED 137
USER: STATUS searching
USER: GENES 29
USER: genes 0 Translation |==|  0.56185 0.45264 0.55193
USER: genes 1 Rotation |==|  0.51625 0.60170 0.49219 0.98922
USER: genes 2 Torsion [C]-N--CA-[C] |==|  0.76178
USER: genes 3 Torsion [N]-CA--C-[N] |==|  0.44870
USER: genes 4 Torsion [C]-N--CA-[C] |==|  0.18663
USER: genes 5 Torsion [N]-CA--C-[N] |==|  0.49498
USER: genes 6 Torsion [C]-N--CA-[CB] |==|  0.88227
USER: genes 7 Torsion [N]-CA--CB-[CG] |==|  0.87066
USER: genes 8 Torsion [CA]-CB--CG-[CD2] |==|  0.41687
USER: genes 9 Torsion [N]-CA--C-[O] |==|  0.99394
USER: genes 10 Torsion [N]-CA--CB-[CG] |==|  0.61970
USER: genes 11 Torsion [CA]-CB--CG-[CD] |==|  0.11127
USER: genes 12 Torsion [CB]-CG--CD-[CE] |==|  0.45083
USER: genes 13 Torsion [CG]-CD--CE-[NZ] |==|  0.49156
USER: genes 14 Torsion [CD]-CE--NZ-[HZ2] |==|  0.58881
USER: genes 15 Torsion [N]-CA--CB-[CG2] |==|  0.58131
USER: genes 16 Torsion [CA]-CB--OG1-[HG1] |==|  0.92638
USER: genes 17 Torsion [N]-C--CA-[N] |==|  0.41796
USER: genes 18 Torsion [C]-CA--N-[C] |==|  0.57264
USER: genes 19 Torsion [N]-C--CA-[N] |==|  0.36534
USER: genes 20 Torsion [C]-CA--CB-[CG] |==|  0.16476
USER: genes 21 Torsion [CA]-CB--CG-[CD] |==|  0.37569
USER: genes 22 Torsion [CB]-CG--CD-[OE2] |==|  0.54873
USER: genes 23 Torsion [C]-CA--N-[C] |==|  0.77986
USER: genes 24 Torsion [N]-C--CA-[N] |==|  0.33428
USER: genes 25 Torsion [C]-CA--CB-[CG2] |==|  0.42820
USER: genes 26 Torsion [C]-CA--CB-[CG] |==|  0.81327
USER: genes 27 Torsion [CA]-CB--CG-[CD1] |==|  0.25522
USER: genes 28 Torsion [CE1]-CZ--OH-[HH] |==|  0.06649
ROOT
ATOM      1  C   TYR F 311      37.724  51.188  -2.297  1.00 39.57 LIG 0.24  C 
ATOM      2 O    TYR F 311      37.478  50.180  -2.963  1.00 35.87 LIG-0.27  OA
ATOM      3  N   THR F 312      37.398  51.326  -1.014  1.00 39.28 LIG-0.34  N 
ATOM      4 H    THR F 312      37.609  52.017  -0.548  1.00 39.28 LIG 0.16  HD
ENDROOT
BRANCH 3 5
ATOM      5  CA  THR F 312      36.649  50.325  -0.264  1.00 41.67 LIG 0.20  C 
BRANCH 5 6
ATOM      6  C   THR F 312      35.152  50.519  -0.448  1.00 45.40 LIG 0.24  C 
ATOM      7  N   LYS F 313      34.391  49.480  -0.144  1.00 48.10 LIG-0.35  N 
ATOM      8 H    LYS F 313      34.701  48.706   0.068  1.00 48.10 LIG 0.16  HD
ATOM      9 O    THR F 312      34.691  51.594  -0.823  1.00 48.99 LIG-0.27  OA
BRANCH 7 10
ATOM     10  CA  LYS F 313      32.938  49.563  -0.143  1.00 51.61 LIG 0.18  C 
BRANCH 10 11
ATOM     11  C   LYS F 313      32.435  49.771  -1.577  1.00 54.92 LIG 0.24  C 
ATOM     12 O    LYS F 313      33.234  49.865  -2.515  1.00 54.36 LIG-0.27  OA
ATOM     13  N   HIS F 314      31.108  49.827  -1.722  1.00 57.06 LIG-0.35  N 
ATOM     14 H    HIS F 314      30.565  49.772  -1.057  1.00 57.06 LIG 0.16  HD
BRANCH 13 15
ATOM     15  CA  HIS F 314      30.425  49.986  -3.016  1.00 57.78 LIG 0.17  C 
BRANCH 15 16
ATOM     16  CB  HIS F 314      31.133  51.029  -3.894  1.00 57.79 LIG 0.09  C 
BRANCH 16 17
ATOM     17  CG  HIS F 314      31.479  52.296  -3.173  1.00 61.61 LIG 0.06  A 
ATOM     18  CD2 HIS F 314      32.490  53.180  -3.353  1.00 62.97 LIG 0.14  A 
ATOM     19 NE2  HIS F 314      32.337  54.172  -2.413  1.00 63.36 LIG-0.25  NA
ATOM     20  CE1 HIS F 314      31.268  53.910  -1.682  1.00 61.50 LIG 0.23  A 
ATOM     21 ND1  HIS F 314      30.732  52.783  -2.118  1.00 63.00 LIG-0.24  NA
ENDBRANCH 16 17
ENDBRANCH 15 16
BRANCH 15 22
ATOM     22  C   HIS F 314      30.287  48.658  -3.771  1.00 59.91 LIG 0.22  C 
ATOM     23 O    HIS F 314      30.758  47.612  -3.310  1.00 59.00 LIG-0.29  OA
ENDBRANCH 15 22
ENDBRANCH 13 15
ENDBRANCH 10 11
BRANCH 10 24
ATOM     24  CB  LYS F 313      32.461  50.686   0.785  1.00 49.70 LIG 0.04  C 
BRANCH 24 25
ATOM     25  CG  LYS F 313      31.269  50.289   1.644  1.00 49.89 LIG 0.00  C 
BRANCH 25 26
ATOM     26  CD  LYS F 313      31.381  48.866   2.168  1.00 49.58 LIG 0.03  C 
BRANCH 26 27
ATOM     27  CE  LYS F 313      30.438  48.641   3.342  1.00 48.23 LIG 0.23  C 
BRANCH 27 28
ATOM     28  NZ  LYS F 313      30.486  47.237   3.815  1.00 47.83 LIG-0.08  N 
ATOM     29 HZ2  LYS F 313      29.687  47.002   4.128  1.00 47.83 LIG 0.27  HD
ATOM     30 HZ1  LYS F 313      31.092  47.162   4.462  1.00 47.83 LIG 0.27  HD
ATOM     31 HZ3  LYS F 313      30.709  46.703   3.138  1.00 47.83 LIG 0.27  HD
ENDBRANCH 27 28
ENDBRANCH 26 27
ENDBRANCH 25 26
ENDBRANCH 24 25
ENDBRANCH 10 24
ENDBRANCH 7 10
ENDBRANCH 5 6
BRANCH 5 32
ATOM     32  CB  THR F 312      36.924  50.442   1.245  1.00 41.09 LIG 0.15  C 
ATOM     33  CG2 THR F 312      36.786  49.097   1.936  1.00 40.88 LIG 0.04  C 
BRANCH 32 34
ATOM     34 OG1  THR F 312      38.251  50.943   1.438  1.00 43.07 LIG-0.39  OA
ATOM     35 HG1  THR F 312      38.728  50.738   0.777  1.00 43.07 LIG 0.21  HD
ENDBRANCH 32 34
ENDBRANCH 5 32
ENDBRANCH 3 5
BRANCH 1 36
ATOM     36  CA  TYR F 311      38.418  52.400  -2.924  1.00 39.31 LIG 0.18  C 
BRANCH 36 37
ATOM     37  N   TYR F 311      39.336  52.038  -4.003  1.00 40.62 LIG-0.35  N 
ATOM     38 H    TYR F 311      39.145  51.301  -4.403  1.00 40.62 LIG 0.16  HD
ATOM     39  C   GLU F 310      40.373  52.810  -4.316  1.00 41.86 LIG 0.24  C 
ATOM     40 O    GLU F 310      40.671  53.799  -3.663  1.00 41.90 LIG-0.27  OA
BRANCH 39 41
ATOM     41  CA  GLU F 310      41.219  52.399  -5.519  1.00 43.14 LIG 0.18  C 
BRANCH 41 42
ATOM     42  CB  GLU F 310      42.555  51.840  -5.020  1.00 44.06 LIG 0.04  C 
BRANCH 42 43
ATOM     43  CG  GLU F 310      42.412  50.631  -4.110  1.00 45.60 LIG 0.12  C 
BRANCH 43 44
ATOM     44  CD  GLU F 310      43.385  49.508  -4.439  1.00 46.85 LIG 0.17  C 
ATOM     45 OE2  GLU F 310      43.133  48.370  -3.987  1.00 47.09 LIG-0.65  OA
ATOM     46 OE1  GLU F 310      44.404  49.758  -5.128  1.00 45.53 LIG-0.65  OA
ENDBRANCH 43 44
ENDBRANCH 42 43
ENDBRANCH 41 42
BRANCH 41 47
ATOM     47  N   GLU F 310      41.443  53.545  -6.414  1.00 43.23 LIG-0.35  N 
ATOM     48  C   VAL F 309      40.531  53.984  -7.289  1.00 44.16 LIG 0.26  C 
ATOM     49 O    VAL F 309      39.433  53.448  -7.458  1.00 43.83 LIG-0.27  OA
ATOM     50 H    GLU F 310      42.217  53.908  -6.323  1.00 43.23 LIG 0.16  HD
BRANCH 48 51
ATOM     51  CA  VAL F 309      40.909  55.226  -8.107  1.00 44.86 LIG 0.40  C 
ATOM     52  N   VAL F 309      40.885  54.896  -9.563  1.00 44.58 LIG 0.61  N 
BRANCH 51 53
ATOM     53  CB  VAL F 309      39.962  56.423  -7.797  1.00 44.54 LIG 0.03  C 
ATOM     54  CG2 VAL F 309      40.672  57.743  -8.073  1.00 44.44 LIG 0.01  C 
ATOM     55  CG1 VAL F 309      39.435  56.391  -6.364  1.00 43.50 LIG 0.01  C 
ENDBRANCH 51 53
ENDBRANCH 48 51
ENDBRANCH 41 47
ENDBRANCH 39 41
ENDBRANCH 36 37
BRANCH 36 56
ATOM     56  CB  TYR F 311      37.350  53.361  -3.457  1.00 38.48 LIG 0.07  C 
BRANCH 56 57
ATOM     57  CG  TYR F 311      36.576  52.796  -4.627  1.00 36.48 LIG-0.06  A 
ATOM     58  CD1 TYR F 311      35.392  52.094  -4.428  1.00 35.51 LIG 0.01  A 
ATOM     59  CE1 TYR F 311      34.678  51.572  -5.494  1.00 35.35 LIG 0.04  A 
ATOM     60  CZ  TYR F 311      35.153  51.737  -6.775  1.00 34.90 LIG 0.07  A 
ATOM     61  CE2 TYR F 311      36.328  52.425  -7.007  1.00 36.46 LIG 0.04  A 
ATOM     62  CD2 TYR F 311      37.039  52.946  -5.936  1.00 36.25 LIG 0.01  A 
BRANCH 60 63
ATOM     63 OH   TYR F 311      34.452  51.215  -7.826  1.00 38.07 LIG-0.36  OA
ATOM     64 HH   TYR F 311      33.645  51.125  -7.609  1.00 38.07 LIG 0.22  HD
ENDBRANCH 60 63
ENDBRANCH 56 57
ENDBRANCH 36 56
ENDBRANCH 1 36
TORSDOF 27
ENDMDL
MODEL 12
USER: ADFR SOLUTION from run 33
USER: SCORE 20.601788 LL:  -5.735 LR: -15.327 RR:   0.000 FEB:  -7.273
USER: RMSD 3.732515
USER: SEED 32
USER: STATUS searching
USER: GENES 29
USER: genes 0 Translation |==|  0.53577 0.43098 0.55950
USER: genes 1 Rotation |==|  0.54904 0.58099 0.48104 0.99059
USER: genes 2 Torsion [C]-N--CA-[C] |==|  0.69915
USER: genes 3 Torsion [N]-CA--C-[N] |==|  0.39141
USER: genes 4 Torsion [C]-N--CA-[C] |==|  0.82608
USER: genes 5 Torsion [N]-CA--C-[N] |==|  0.90420
USER: genes 6 Torsion [C]-N--CA-[CB] |==|  0.33591
USER: genes 7 Torsion [N]-CA--CB-[CG] |==|  0.10523
USER: genes 8 Torsion [CA]-CB--CG-[CD2] |==|  0.22899
USER: genes 9 Torsion [N]-CA--C-[O] |==|  0.01217
USER: genes 10 Torsion [N]-CA--CB-[CG] |==|  0.40415
USER: genes 11 Torsion [CA]-CB--CG-[CD] |==|  0.68655
USER: genes 12 Torsion [CB]-CG--CD-[CE] |==|  0.44791
USER: genes 13 Torsion [CG]-CD--CE-[NZ] |==|  0.57152
USER: genes 14 Torsion [CD]-CE--NZ-[HZ2] |==|  0.00828
USER: genes 15 Torsion [N]-CA--CB-[CG2] |==|  0.61145
USER: genes 16 Torsion [CA]-CB--OG1-[HG1] |==|  0.56584
USER: genes 17 Torsion [N]-C--CA-[N] |==|  0.40709
USER: genes 18 Torsion [C]-CA--N-[C] |==|  0.58352
USER: genes 19 Torsion [N]-C--CA-[N] |==|  0.34117
USER: genes 20 Torsion [C]-CA--CB-[CG] |==|  0.46099
USER: genes 21 Torsion [CA]-CB--CG-[CD] |==|  0.60834
USER: genes 22 Torsion [CB]-CG--CD-[OE2] |==|  0.65512
USER: genes 23 Torsion [C]-CA--N-[C] |==|  0.75067
USER: genes 24 Torsion [N]-C--CA-[N] |==|  0.38563
USER: genes 25 Torsion [C]-CA--CB-[CG2] |==|  0.00380
USER: genes 26 Torsion [C]-CA--CB-[CG] |==|  0.81665
USER: genes 27 Torsion [CA]-CB--CG-[CD1] |==|  0.26080
USER: genes 28 Torsion [CE1]-CZ--OH-[HH] |==|  0.03752
ROOT
ATOM      1  C   TYR F 311      37.001  50.766  -2.150  1.00 39.57 LIG 0.24  C 
ATOM      2 O    TYR F 311      36.745  49.862  -2.950  1.00 35.87 LIG-0.27  OA
ATOM      3  N   THR F 312      36.574  50.781  -0.889  1.00 39.28 LIG-0.34  N 
ATOM      4 H    THR F 312      36.790  51.395  -0.328  1.00 39.28 LIG 0.16  HD
ENDROOT
BRANCH 3 5
ATOM      5  CA  THR F 312      35.697  49.762  -0.326  1.00 41.67 LIG 0.20  C 
BRANCH 5 6
ATOM      6  C   THR F 312      34.299  50.316  -0.097  1.00 45.40 LIG 0.24  C 
ATOM      7  N   LYS F 313      33.298  49.497  -0.373  1.00 48.10 LIG-0.35  N 
ATOM      8 H    LYS F 313      33.398  48.725  -0.736  1.00 48.10 LIG 0.16  HD
ATOM      9 O    THR F 312      34.129  51.448   0.351  1.00 48.99 LIG-0.27  OA
BRANCH 7 10
ATOM     10  CA  LYS F 313      31.915  49.843  -0.077  1.00 51.61 LIG 0.18  C 
BRANCH 10 11
ATOM     11  C   LYS F 313      31.743  50.018   1.437  1.00 54.92 LIG 0.24  C 
ATOM     12 O    LYS F 313      30.950  50.852   1.887  1.00 54.36 LIG-0.27  OA
ATOM     13  N   HIS F 314      32.486  49.210   2.201  1.00 57.06 LIG-0.35  N 
ATOM     14 H    HIS F 314      33.042  48.643   1.872  1.00 57.06 LIG 0.16  HD
BRANCH 13 15
ATOM     15  CA  HIS F 314      32.442  49.194   3.672  1.00 57.78 LIG 0.17  C 
BRANCH 15 16
ATOM     16  CB  HIS F 314      32.048  47.807   4.201  1.00 57.79 LIG 0.09  C 
BRANCH 16 17
ATOM     17  CG  HIS F 314      32.629  46.670   3.418  1.00 61.61 LIG 0.06  A 
ATOM     18  CD2 HIS F 314      33.848  46.079   3.472  1.00 62.97 LIG 0.14  A 
ATOM     19 NE2  HIS F 314      33.856  45.077   2.530  1.00 63.36 LIG-0.25  NA
ATOM     20  CE1 HIS F 314      32.685  45.051   1.919  1.00 61.50 LIG 0.23  A 
ATOM     21 ND1  HIS F 314      31.925  46.002   2.435  1.00 63.00 LIG-0.24  NA
ENDBRANCH 16 17
ENDBRANCH 15 16
BRANCH 15 22
ATOM     22  C   HIS F 314      33.764  49.650   4.300  1.00 59.91 LIG 0.22  C 
ATOM     23 O    HIS F 314      34.696  50.057   3.598  1.00 59.00 LIG-0.29  OA
ENDBRANCH 15 22
ENDBRANCH 13 15
ENDBRANCH 10 11
BRANCH 10 24
ATOM     24  CB  LYS F 313      30.961  48.779  -0.629  1.00 49.70 LIG 0.04  C 
BRANCH 24 25
ATOM     25  CG  LYS F 313      29.735  48.560   0.246  1.00 49.89 LIG 0.00  C 
BRANCH 25 26
ATOM     26  CD  LYS F 313      29.723  47.185   0.893  1.00 49.58 LIG 0.03  C 
BRANCH 26 27
ATOM     27  CE  LYS F 313      28.777  47.152   2.086  1.00 48.23 LIG 0.23  C 
BRANCH 27 28
ATOM     28  NZ  LYS F 313      29.174  46.112   3.065  1.00 47.83 LIG-0.08  N 
ATOM     29 HZ2  LYS F 313      29.927  45.721   2.794  1.00 47.83 LIG 0.27  HD
ATOM     30 HZ1  LYS F 313      28.529  45.502   3.129  1.00 47.83 LIG 0.27  HD
ATOM     31 HZ3  LYS F 313      29.306  46.488   3.861  1.00 47.83 LIG 0.27  HD
ENDBRANCH 27 28
ENDBRANCH 26 27
ENDBRANCH 25 26
ENDBRANCH 24 25
ENDBRANCH 10 24
ENDBRANCH 7 10
ENDBRANCH 5 6
BRANCH 5 32
ATOM     32  CB  THR F 312      36.208  49.285   1.045  1.00 41.09 LIG 0.15  C 
ATOM     33  CG2 THR F 312      36.046  47.784   1.201  1.00 40.88 LIG 0.04  C 
BRANCH 32 34
ATOM     34 OG1  THR F 312      37.592  49.630   1.170  1.00 43.07 LIG-0.39  OA
ATOM     35 HG1  THR F 312      37.959  49.120   1.728  1.00 43.07 LIG 0.21  HD
ENDBRANCH 32 34
ENDBRANCH 5 32
ENDBRANCH 3 5
BRANCH 1 36
ATOM     36  CA  TYR F 311      37.827  51.984  -2.570  1.00 39.31 LIG 0.18  C 
BRANCH 36 37
ATOM     37  N   TYR F 311      38.869  51.660  -3.543  1.00 40.62 LIG-0.35  N 
ATOM     38 H    TYR F 311      38.680  51.001  -4.063  1.00 40.62 LIG 0.16  HD
ATOM     39  C   GLU F 310      40.005  52.348  -3.594  1.00 41.86 LIG 0.24  C 
ATOM     40 O    GLU F 310      40.281  53.213  -2.775  1.00 41.90 LIG-0.27  OA
BRANCH 39 41
ATOM     41  CA  GLU F 310      40.993  51.998  -4.705  1.00 43.14 LIG 0.18  C 
BRANCH 41 42
ATOM     42  CB  GLU F 310      42.273  51.440  -4.077  1.00 44.06 LIG 0.04  C 
BRANCH 42 43
ATOM     43  CG  GLU F 310      43.192  50.747  -5.069  1.00 45.60 LIG 0.12  C 
BRANCH 43 44
ATOM     44  CD  GLU F 310      43.851  49.495  -4.508  1.00 46.85 LIG 0.17  C 
ATOM     45 OE2  GLU F 310      45.100  49.434  -4.536  1.00 47.09 LIG-0.65  OA
ATOM     46 OE1  GLU F 310      43.132  48.569  -4.060  1.00 45.53 LIG-0.65  OA
ENDBRANCH 43 44
ENDBRANCH 42 43
ENDBRANCH 41 42
BRANCH 41 47
ATOM     47  N   GLU F 310      41.295  53.182  -5.525  1.00 43.23 LIG-0.35  N 
ATOM     48  C   VAL F 309      40.591  53.525  -6.610  1.00 44.16 LIG 0.26  C 
ATOM     49 O    VAL F 309      39.648  52.862  -7.050  1.00 43.83 LIG-0.27  OA
ATOM     50 H    GLU F 310      41.968  53.635  -5.241  1.00 43.23 LIG 0.16  HD
BRANCH 48 51
ATOM     51  CA  VAL F 309      41.009  54.821  -7.316  1.00 44.86 LIG 0.40  C 
ATOM     52  N   VAL F 309      40.966  54.624  -8.796  1.00 44.58 LIG 0.61  N 
BRANCH 51 53
ATOM     53  CB  VAL F 309      40.107  56.017  -6.893  1.00 44.54 LIG 0.03  C 
ATOM     54  CG2 VAL F 309      39.078  55.566  -5.864  1.00 44.44 LIG 0.01  C 
ATOM     55  CG1 VAL F 309      39.415  56.674  -8.086  1.00 43.50 LIG 0.01  C 
ENDBRANCH 51 53
ENDBRANCH 48 51
ENDBRANCH 41 47
ENDBRANCH 39 41
ENDBRANCH 36 37
BRANCH 36 56
ATOM     56  CB  TYR F 311      36.886  53.042  -3.156  1.00 38.48 LIG 0.07  C 
BRANCH 56 57
ATOM     57  CG  TYR F 311      36.235  52.605  -4.450  1.00 36.48 LIG-0.06  A 
ATOM     58  CD1 TYR F 311      34.981  52.002  -4.450  1.00 35.51 LIG 0.01  A 
ATOM     59  CE1 TYR F 311      34.379  51.597  -5.630  1.00 35.35 LIG 0.04  A 
ATOM     60  CZ  TYR F 311      35.036  51.779  -6.825  1.00 34.90 LIG 0.07  A 
ATOM     61  CE2 TYR F 311      36.285  52.369  -6.859  1.00 36.46 LIG 0.04  A 
ATOM     62  CD2 TYR F 311      36.883  52.774  -5.675  1.00 36.25 LIG 0.01  A 
BRANCH 60 63
ATOM     63 OH   TYR F 311      34.446  51.371  -7.988  1.00 38.07 LIG-0.36  OA
ATOM     64 HH   TYR F 311      33.634  51.207  -7.848  1.00 38.07 LIG 0.22  HD
ENDBRANCH 60 63
ENDBRANCH 56 57
ENDBRANCH 36 56
ENDBRANCH 1 36
TORSDOF 27
ENDMDL
MODEL 13
USER: ADFR SOLUTION from run 33
USER: SCORE 20.591660 LL:  -5.678 LR: -15.247 RR:   0.000 FEB:  -7.192
USER: RMSD 3.207764
USER: SEED 32
USER: STATUS searching
USER: GENES 29
USER: genes 0 Translation |==|  0.53328 0.44727 0.54309
USER: genes 1 Rotation |==|  0.50721 0.50194 0.46028 0.99836
USER: genes 2 Torsion [C]-N--CA-[C] |==|  0.67473
USER: genes 3 Torsion [N]-CA--C-[N] |==|  0.03703
USER: genes 4 Torsion [C]-N--CA-[C] |==|  0.83889
USER: genes 5 Torsion [N]-CA--C-[N] |==|  0.40274
USER: genes 6 Torsion [C]-N--CA-[CB] |==|  0.24450
USER: genes 7 Torsion [N]-CA--CB-[CG] |==|  0.71970
USER: genes 8 Torsion [CA]-CB--CG-[CD2] |==|  0.38661
USER: genes 9 Torsion [N]-CA--C-[O] |==|  0.11087
USER: genes 10 Torsion [N]-CA--CB-[CG] |==|  0.43177
USER: genes 11 Torsion [CA]-CB--CG-[CD] |==|  0.72804
USER: genes 12 Torsion [CB]-CG--CD-[CE] |==|  0.35212
USER: genes 13 Torsion [CG]-CD--CE-[NZ] |==|  0.63609
USER: genes 14 Torsion [CD]-CE--NZ-[HZ2] |==|  0.64282
USER: genes 15 Torsion [N]-CA--CB-[CG2] |==|  0.69056
USER: genes 16 Torsion [CA]-CB--OG1-[HG1] |==|  0.39567
USER: genes 17 Torsion [N]-C--CA-[N] |==|  0.44800
USER: genes 18 Torsion [C]-CA--N-[C] |==|  0.54546
USER: genes 19 Torsion [N]-C--CA-[N] |==|  0.37034
USER: genes 20 Torsion [C]-CA--CB-[CG] |==|  0.51672
USER: genes 21 Torsion [CA]-CB--CG-[CD] |==|  0.63306
USER: genes 22 Torsion [CB]-CG--CD-[OE2] |==|  0.56491
USER: genes 23 Torsion [C]-CA--N-[C] |==|  0.78603
USER: genes 24 Torsion [N]-C--CA-[N] |==|  0.37223
USER: genes 25 Torsion [C]-CA--CB-[CG2] |==|  0.06858
USER: genes 26 Torsion [C]-CA--CB-[CG] |==|  0.84416
USER: genes 27 Torsion [CA]-CB--CG-[CD1] |==|  0.24170
USER: genes 28 Torsion [CE1]-CZ--OH-[HH] |==|  0.00380
ROOT
ATOM      1  C   TYR F 311      36.931  51.084  -2.470  1.00 39.57 LIG 0.24  C 
ATOM      2 O    TYR F 311      36.817  50.052  -3.137  1.00 35.87 LIG-0.27  OA
ATOM      3  N   THR F 312      36.164  51.376  -1.421  1.00 39.28 LIG-0.34  N 
ATOM      4 H    THR F 312      36.278  52.078  -0.939  1.00 39.28 LIG 0.16  HD
ENDROOT
BRANCH 3 5
ATOM      5  CA  THR F 312      35.055  50.540  -0.981  1.00 41.67 LIG 0.20  C 
BRANCH 5 6
ATOM      6  C   THR F 312      33.736  51.290  -1.089  1.00 45.40 LIG 0.24  C 
ATOM      7  N   LYS F 313      33.762  52.410  -1.793  1.00 48.10 LIG-0.35  N 
ATOM      8 H    LYS F 313      34.480  52.759  -2.110  1.00 48.10 LIG 0.16  HD
ATOM      9 O    THR F 312      32.709  50.849  -0.577  1.00 48.99 LIG-0.27  OA
BRANCH 7 10
ATOM     10  CA  LYS F 313      32.551  53.160  -2.092  1.00 51.61 LIG 0.18  C 
BRANCH 10 11
ATOM     11  C   LYS F 313      31.565  52.261  -2.849  1.00 54.92 LIG 0.24  C 
ATOM     12 O    LYS F 313      31.974  51.408  -3.643  1.00 54.36 LIG-0.27  OA
ATOM     13  N   HIS F 314      30.272  52.463  -2.576  1.00 57.06 LIG-0.35  N 
ATOM     14 H    HIS F 314      30.002  53.070  -2.029  1.00 57.06 LIG 0.16  HD
BRANCH 13 15
ATOM     15  CA  HIS F 314      29.172  51.684  -3.167  1.00 57.78 LIG 0.17  C 
BRANCH 15 16
ATOM     16  CB  HIS F 314      28.871  50.427  -2.335  1.00 57.79 LIG 0.09  C 
BRANCH 16 17
ATOM     17  CG  HIS F 314      29.451  49.169  -2.905  1.00 61.61 LIG 0.06  A 
ATOM     18  CD2 HIS F 314      30.057  48.114  -2.307  1.00 62.97 LIG 0.14  A 
ATOM     19 NE2  HIS F 314      30.400  47.226  -3.300  1.00 63.36 LIG-0.25  NA
ATOM     20  CE1 HIS F 314      30.016  47.714  -4.466  1.00 61.50 LIG 0.23  A 
ATOM     21 ND1  HIS F 314      29.441  48.887  -4.257  1.00 63.00 LIG-0.24  NA
ENDBRANCH 16 17
ENDBRANCH 15 16
BRANCH 15 22
ATOM     22  C   HIS F 314      27.899  52.519  -3.353  1.00 59.91 LIG 0.22  C 
ATOM     23 O    HIS F 314      27.957  53.691  -3.739  1.00 59.00 LIG-0.29  OA
ENDBRANCH 15 22
ENDBRANCH 13 15
ENDBRANCH 10 11
BRANCH 10 24
ATOM     24  CB  LYS F 313      32.881  54.424  -2.893  1.00 49.70 LIG 0.04  C 
BRANCH 24 25
ATOM     25  CG  LYS F 313      31.714  54.926  -3.731  1.00 49.89 LIG 0.00  C 
BRANCH 25 26
ATOM     26  CD  LYS F 313      31.805  54.476  -5.181  1.00 49.58 LIG 0.03  C 
BRANCH 26 27
ATOM     27  CE  LYS F 313      30.524  53.780  -5.618  1.00 48.23 LIG 0.23  C 
BRANCH 27 28
ATOM     28  NZ  LYS F 313      30.809  52.490  -6.289  1.00 47.83 LIG-0.08  N 
ATOM     29 HZ2  LYS F 313      30.383  52.461  -7.071  1.00 47.83 LIG 0.27  HD
ATOM     30 HZ1  LYS F 313      30.530  51.819  -5.775  1.00 47.83 LIG 0.27  HD
ATOM     31 HZ3  LYS F 313      31.685  52.413  -6.427  1.00 47.83 LIG 0.27  HD
ENDBRANCH 27 28
ENDBRANCH 26 27
ENDBRANCH 25 26
ENDBRANCH 24 25
ENDBRANCH 10 24
ENDBRANCH 7 10
ENDBRANCH 5 6
BRANCH 5 32
ATOM     32  CB  THR F 312      35.212  50.144   0.498  1.00 41.09 LIG 0.15  C 
ATOM     33  CG2 THR F 312      35.494  48.659   0.642  1.00 40.88 LIG 0.04  C 
BRANCH 32 34
ATOM     34 OG1  THR F 312      36.292  50.891   1.067  1.00 43.07 LIG-0.39  OA
ATOM     35 HG1  THR F 312      36.101  51.103   1.857  1.00 43.07 LIG 0.21  HD
ENDBRANCH 32 34
ENDBRANCH 5 32
ENDBRANCH 3 5
BRANCH 1 36
ATOM     36  CA  TYR F 311      37.974  52.145  -2.827  1.00 39.31 LIG 0.18  C 
BRANCH 36 37
ATOM     37  N   TYR F 311      39.052  51.627  -3.668  1.00 40.62 LIG-0.35  N 
ATOM     38 H    TYR F 311      38.880  50.874  -4.046  1.00 40.62 LIG 0.16  HD
ATOM     39  C   GLU F 310      40.195  52.292  -3.814  1.00 41.86 LIG 0.24  C 
ATOM     40 O    GLU F 310      40.443  53.308  -3.183  1.00 41.90 LIG-0.27  OA
BRANCH 39 41
ATOM     41  CA  GLU F 310      41.224  51.719  -4.786  1.00 43.14 LIG 0.18  C 
BRANCH 41 42
ATOM     42  CB  GLU F 310      42.357  51.069  -3.987  1.00 44.06 LIG 0.04  C 
BRANCH 42 43
ATOM     43  CG  GLU F 310      43.517  50.590  -4.844  1.00 45.60 LIG 0.12  C 
BRANCH 43 44
ATOM     44  CD  GLU F 310      43.961  49.171  -4.519  1.00 46.85 LIG 0.17  C 
ATOM     45 OE2  GLU F 310      45.132  48.847  -4.818  1.00 47.09 LIG-0.65  OA
ATOM     46 OE1  GLU F 310      43.148  48.377  -3.988  1.00 45.53 LIG-0.65  OA
ENDBRANCH 43 44
ENDBRANCH 42 43
ENDBRANCH 41 42
BRANCH 41 47
ATOM     47  N   GLU F 310      41.753  52.774  -5.665  1.00 43.23 LIG-0.35  N 
ATOM     48  C   VAL F 309      41.079  53.268  -6.710  1.00 44.16 LIG 0.26  C 
ATOM     49 O    VAL F 309      39.969  52.860  -7.060  1.00 43.83 LIG-0.27  OA
ATOM     50 H    GLU F 310      42.539  53.045  -5.444  1.00 43.23 LIG 0.16  HD
BRANCH 48 51
ATOM     51  CA  VAL F 309      41.756  54.404  -7.488  1.00 44.86 LIG 0.40  C 
ATOM     52  N   VAL F 309      41.655  54.139  -8.954  1.00 44.58 LIG 0.61  N 
BRANCH 51 53
ATOM     53  CB  VAL F 309      41.138  55.787  -7.132  1.00 44.54 LIG 0.03  C 
ATOM     54  CG2 VAL F 309      40.505  55.742  -5.746  1.00 44.44 LIG 0.01  C 
ATOM     55  CG1 VAL F 309      40.117  56.251  -8.169  1.00 43.50 LIG 0.01  C 
ENDBRANCH 51 53
ENDBRANCH 48 51
ENDBRANCH 41 47
ENDBRANCH 39 41
ENDBRANCH 36 37
BRANCH 36 56
ATOM     56  CB  TYR F 311      37.275  53.305  -3.544  1.00 38.48 LIG 0.07  C 
BRANCH 56 57
ATOM     57  CG  TYR F 311      36.504  52.865  -4.770  1.00 36.48 LIG-0.06  A 
ATOM     58  CD1 TYR F 311      35.188  52.428  -4.667  1.00 35.51 LIG 0.01  A 
ATOM     59  CE1 TYR F 311      34.476  52.021  -5.784  1.00 35.35 LIG 0.04  A 
ATOM     60  CZ  TYR F 311      35.084  52.035  -7.018  1.00 34.90 LIG 0.07  A 
ATOM     61  CE2 TYR F 311      36.392  52.459  -7.154  1.00 36.46 LIG 0.04  A 
ATOM     62  CD2 TYR F 311      37.100  52.866  -6.033  1.00 36.25 LIG 0.01  A 
BRANCH 60 63
ATOM     63 OH   TYR F 311      34.384  51.626  -8.119  1.00 38.07 LIG-0.36  OA
ATOM     64 HH   TYR F 311      33.603  51.417  -7.893  1.00 38.07 LIG 0.22  HD
ENDBRANCH 60 63
ENDBRANCH 56 57
ENDBRANCH 36 56
ENDBRANCH 1 36
TORSDOF 27
ENDMDL
