MODEL 1
USER: ADFR SOLUTION from run 40
USER: SCORE 22.362704 LL:  -3.634 LR: -20.243 RR:   0.000 FEB: -13.084
USER: RMSD 4.307892
USER: SEED 39
USER: STATUS no improvement in best in 4 clusters for 5 generations
USER: GENES 26
USER: genes 0 Translation |==|  0.59753 0.67475 0.35782
USER: genes 1 Rotation |==|  0.51158 0.49094 0.50099 0.99978
USER: genes 2 Torsion [N]-CA--C-[N] |==|  0.97871
USER: genes 3 Torsion [C]-N--CA-[C] |==|  0.76774
USER: genes 4 Torsion [N]-CA--C-[N] |==|  0.40363
USER: genes 5 Torsion [C]-N--CA-[C] |==|  0.62685
USER: genes 6 Torsion [N]-CA--C-[N] |==|  0.14162
USER: genes 7 Torsion [C]-N--CA-[C] |==|  0.74125
USER: genes 8 Torsion [N]-CA--C-[N] |==|  0.60368
USER: genes 9 Torsion [C]-N--CA-[CB] |==|  0.51955
USER: genes 10 Torsion [N]-CA--CB-[CG] |==|  0.00965
USER: genes 11 Torsion [CA]-CB--CG-[CD] |==|  0.40046
USER: genes 12 Torsion [CB]-CG--CD-[OE1] |==|  0.17426
USER: genes 13 Torsion [N]-CA--C-[O] |==|  0.50541
USER: genes 14 Torsion [C]-CA--CB-[OG] |==|  0.48988
USER: genes 15 Torsion [CA]-CB--OG-[HG] |==|  0.18132
USER: genes 16 Torsion [C]-CA--N-[C] |==|  0.76751
USER: genes 17 Torsion [N]-C--CA-[N] |==|  0.13779
USER: genes 18 Torsion [C]-CA--N-[C] |==|  0.11145
USER: genes 19 Torsion [N]-C--CA-[N] |==|  0.10547
USER: genes 20 Torsion [C]-CA--CB-[CG] |==|  0.40844
USER: genes 21 Torsion [CA]-CB--CG-[CD] |==|  0.85180
USER: genes 22 Torsion [CB]-CG--CD-[OE1] |==|  0.95549
USER: genes 23 Torsion [C]-CA--CB-[CG] |==|  0.65991
USER: genes 24 Torsion [CA]-CB--CG-[CD1] |==|  0.25760
USER: genes 25 Torsion [CE1]-CZ--OH-[HH] |==|  0.03577
ROOT
ATOM      1  CA  SER B 215      -1.434  22.883  66.525  1.00 52.27 LIG 0.20  C 
ENDROOT
BRANCH 1 2
ATOM      2  C   SER B 215      -2.927  22.818  66.830  1.00 51.68 LIG 0.24  C 
ATOM      3  N   GLY B 216      -3.529  21.630  66.833  1.00 53.30 LIG-0.35  N 
ATOM      4 H    GLY B 216      -3.133  20.883  66.676  1.00 53.30 LIG 0.16  HD
ATOM      5 O    SER B 215      -3.538  23.869  67.057  1.00 50.19 LIG-0.27  OA
BRANCH 3 6
ATOM      6  CA  GLY B 216      -4.951  21.522  67.116  1.00 53.60 LIG 0.23  C 
BRANCH 6 7
ATOM      7  C   GLY B 216      -5.219  21.499  68.613  1.00 54.90 LIG 0.23  C 
ATOM      8 O    GLY B 216      -4.441  20.959  69.398  1.00 56.89 LIG-0.27  OA
ATOM      9  N   GLY B 217      -6.342  22.100  69.003  1.00 54.85 LIG-0.35  N 
ATOM     10 H    GLY B 217      -6.898  22.475  68.466  1.00 54.85 LIG 0.16  HD
BRANCH 9 11
ATOM     11  CA  GLY B 217      -6.720  22.166  70.401  1.00 55.68 LIG 0.23  C 
BRANCH 11 12
ATOM     12  C   GLY B 217      -8.173  21.822  70.647  1.00 61.00 LIG 0.23  C 
ATOM     13  N   GLY B 218      -8.621  20.686  70.116  1.00 59.47 LIG-0.35  N 
ATOM     14 H    GLY B 218      -8.153  20.180  69.601  1.00 59.47 LIG 0.16  HD
ATOM     15 O    GLY B 217      -8.891  22.578  71.307  1.00 65.89 LIG-0.27  OA
BRANCH 13 16
ATOM     16  CA  GLY B 218      -9.962  20.201  70.371  1.00 64.42 LIG 0.23  C 
BRANCH 16 17
ATOM     17  C   GLY B 218     -10.046  19.237  71.542  1.00 64.00 LIG 0.23  C 
ATOM     18 O    GLY B 218      -9.374  19.370  72.570  1.00 58.72 LIG-0.27  OA
ATOM     19  N   GLN B 219     -10.908  18.239  71.370  1.00 74.28 LIG-0.35  N 
ATOM     20 H    GLN B 219     -11.426  18.168  70.687  1.00 74.28 LIG 0.16  HD
BRANCH 19 21
ATOM     21  CA  GLN B 219     -11.050  17.165  72.344  1.00 75.25 LIG 0.16  C 
BRANCH 21 22
ATOM     22  CB  GLN B 219     -11.980  16.068  71.816  1.00 86.28 LIG 0.04  C 
BRANCH 22 23
ATOM     23  CG  GLN B 219     -12.468  16.297  70.396  1.00 94.41 LIG 0.10  C 
BRANCH 23 24
ATOM     24  CD  GLN B 219     -12.600  15.009  69.608  1.00 99.68 LIG 0.21  C 
ATOM     25 OE1  GLN B 219     -13.391  14.131  69.953  1.00 99.85 LIG-0.27  OA
ATOM     26  NE2 GLN B 219     -11.817  14.888  68.541  1.00103.54 LIG-0.37  N 
ATOM     27 22HE GLN B 219     -11.851  14.176  68.061  1.00103.54 LIG 0.16  HD
ATOM     28 21HE GLN B 219     -11.276  15.523  68.331  1.00103.54 LIG 0.16  HD
ENDBRANCH 23 24
ENDBRANCH 22 23
ENDBRANCH 21 22
BRANCH 21 29
ATOM     29  C   GLN B 219      -9.686  16.576  72.677  1.00 69.40 LIG 0.22  C 
ATOM     30 O    GLN B 219      -9.586  15.631  73.454  1.00 67.07 LIG-0.29  OA
ENDBRANCH 21 29
ENDBRANCH 19 21
ENDBRANCH 16 17
ENDBRANCH 13 16
ENDBRANCH 11 12
ENDBRANCH 9 11
ENDBRANCH 6 7
ENDBRANCH 3 6
ENDBRANCH 1 2
BRANCH 1 31
ATOM     31  CB  SER B 215      -1.229  23.662  65.217  1.00 50.74 LIG 0.20  C 
BRANCH 31 32
ATOM     32 OG   SER B 215       0.148  23.826  64.927  1.00 51.75 LIG-0.40  OA
ATOM     33 HG   SER B 215       0.494  23.076  64.777  1.00 51.75 LIG 0.21  HD
ENDBRANCH 31 32
ENDBRANCH 1 31
BRANCH 1 34
ATOM     34  N   SER B 215      -0.790  21.577  66.440  1.00 54.58 LIG-0.34  N 
ATOM     35 H    SER B 215      -0.713  21.271  65.640  1.00 54.58 LIG 0.16  HD
ATOM     36  C   TYR B 214      -0.365  20.931  67.529  1.00 60.44 LIG 0.24  C 
ATOM     37 O    TYR B 214      -0.644  21.291  68.675  1.00 63.52 LIG-0.27  OA
BRANCH 36 38
ATOM     38  CA  TYR B 214       0.500  19.698  67.269  1.00 69.60 LIG 0.18  C 
BRANCH 38 39
ATOM     39  N   TYR B 214       1.567  20.014  66.330  1.00 70.42 LIG-0.34  N 
ATOM     40 H    TYR B 214       1.719  19.391  65.756  1.00 70.42 LIG 0.16  HD
ATOM     41  C   GLU B 213       2.243  21.154  66.361  1.00 68.24 LIG 0.26  C 
ATOM     42 O    GLU B 213       2.083  22.000  67.240  1.00 68.90 LIG-0.27  OA
BRANCH 41 43
ATOM     43  CA  GLU B 213       3.262  21.369  65.239  1.00 66.05 LIG 0.40  C 
ATOM     44  N   GLU B 213       2.774  20.855  63.966  1.00 67.54 LIG 0.61  N 
BRANCH 43 45
ATOM     45  CB  GLU B 213       3.595  22.859  65.117  1.00 68.67 LIG 0.06  C 
BRANCH 45 46
ATOM     46  CG  GLU B 213       5.034  23.151  64.687  1.00 74.56 LIG 0.12  C 
BRANCH 46 47
ATOM     47  CD  GLU B 213       6.074  22.462  65.564  1.00 75.07 LIG 0.17  C 
ATOM     48 OE1  GLU B 213       5.726  22.005  66.679  1.00 71.08 LIG-0.65  OA
ATOM     49 OE2  GLU B 213       7.245  22.381  65.135  1.00 77.01 LIG-0.65  OA
ENDBRANCH 46 47
ENDBRANCH 45 46
ENDBRANCH 43 45
ENDBRANCH 41 43
ENDBRANCH 38 39
BRANCH 38 50
ATOM     50  CB  TYR B 214       1.085  19.161  68.578  1.00 76.14 LIG 0.07  C 
BRANCH 50 51
ATOM     51  CG  TYR B 214       2.600  19.086  68.598  1.00 81.97 LIG-0.06  A 
ATOM     52  CD1 TYR B 214       3.364  20.137  69.093  1.00 81.11 LIG 0.01  A 
ATOM     53  CE1 TYR B 214       4.747  20.070  69.112  1.00 82.09 LIG 0.04  A 
ATOM     54  CZ  TYR B 214       5.384  18.943  68.634  1.00 85.00 LIG 0.07  A 
ATOM     55  CE2 TYR B 214       4.650  17.886  68.138  1.00 86.81 LIG 0.04  A 
ATOM     56  CD2 TYR B 214       3.268  17.962  68.121  1.00 86.12 LIG 0.01  A 
BRANCH 54 57
ATOM     57 OH   TYR B 214       6.758  18.874  68.650  1.00 86.93 LIG-0.36  OA
ATOM     58 HH   TYR B 214       7.064  19.493  69.129  1.00 86.93 LIG 0.22  HD
ENDBRANCH 54 57
ENDBRANCH 50 51
ENDBRANCH 38 50
ENDBRANCH 36 38
ENDBRANCH 1 34
TORSDOF 24
ENDMDL
MODEL 2
USER: ADFR SOLUTION from run 107
USER: SCORE 21.968611 LL:  -3.846 LR: -19.005 RR:   0.000 FEB: -11.846
USER: RMSD 3.645771
USER: SEED 106
USER: STATUS searching
USER: GENES 26
USER: genes 0 Translation |==|  0.60134 0.67041 0.37215
USER: genes 1 Rotation |==|  0.51742 0.48648 0.49047 0.99942
USER: genes 2 Torsion [N]-CA--C-[N] |==|  0.97342
USER: genes 3 Torsion [C]-N--CA-[C] |==|  0.78178
USER: genes 4 Torsion [N]-CA--C-[N] |==|  0.37222
USER: genes 5 Torsion [C]-N--CA-[C] |==|  0.67265
USER: genes 6 Torsion [N]-CA--C-[N] |==|  0.08876
USER: genes 7 Torsion [C]-N--CA-[C] |==|  0.20012
USER: genes 8 Torsion [N]-CA--C-[N] |==|  0.50673
USER: genes 9 Torsion [C]-N--CA-[CB] |==|  0.13271
USER: genes 10 Torsion [N]-CA--CB-[CG] |==|  0.62180
USER: genes 11 Torsion [CA]-CB--CG-[CD] |==|  0.66055
USER: genes 12 Torsion [CB]-CG--CD-[OE1] |==|  0.08754
USER: genes 13 Torsion [N]-CA--C-[O] |==|  0.67728
USER: genes 14 Torsion [C]-CA--CB-[OG] |==|  0.49642
USER: genes 15 Torsion [CA]-CB--OG-[HG] |==|  0.23253
USER: genes 16 Torsion [C]-CA--N-[C] |==|  0.76725
USER: genes 17 Torsion [N]-C--CA-[N] |==|  0.13137
USER: genes 18 Torsion [C]-CA--N-[C] |==|  0.12889
USER: genes 19 Torsion [N]-C--CA-[N] |==|  0.09647
USER: genes 20 Torsion [C]-CA--CB-[CG] |==|  0.40426
USER: genes 21 Torsion [CA]-CB--CG-[CD] |==|  0.83435
USER: genes 22 Torsion [CB]-CG--CD-[OE1] |==|  0.96423
USER: genes 23 Torsion [C]-CA--CB-[CG] |==|  0.66882
USER: genes 24 Torsion [CA]-CB--CG-[CD1] |==|  0.78202
USER: genes 25 Torsion [CE1]-CZ--OH-[HH] |==|  0.38137
ROOT
ATOM      1  CA  SER B 215      -1.306  22.815  66.761  1.00 52.27 LIG 0.20  C 
ENDROOT
BRANCH 1 2
ATOM      2  C   SER B 215      -2.805  22.805  67.040  1.00 51.68 LIG 0.24  C 
ATOM      3  N   GLY B 216      -3.463  21.650  66.967  1.00 53.30 LIG-0.35  N 
ATOM      4 H    GLY B 216      -3.100  20.895  66.773  1.00 53.30 LIG 0.16  HD
ATOM      5 O    SER B 215      -3.369  23.870  67.318  1.00 50.19 LIG-0.27  OA
BRANCH 3 6
ATOM      6  CA  GLY B 216      -4.894  21.596  67.222  1.00 53.60 LIG 0.23  C 
BRANCH 6 7
ATOM      7  C   GLY B 216      -5.192  21.626  68.713  1.00 54.90 LIG 0.23  C 
ATOM      8 O    GLY B 216      -4.572  20.922  69.509  1.00 56.89 LIG-0.27  OA
ATOM      9  N   GLY B 217      -6.160  22.461  69.086  1.00 54.85 LIG-0.35  N 
ATOM     10 H    GLY B 217      -6.606  22.955  68.541  1.00 54.85 LIG 0.16  HD
BRANCH 9 11
ATOM     11  CA  GLY B 217      -6.544  22.605  70.477  1.00 55.68 LIG 0.23  C 
BRANCH 11 12
ATOM     12  C   GLY B 217      -7.979  22.204  70.748  1.00 61.00 LIG 0.23  C 
ATOM     13  N   GLY B 218      -8.485  21.232  69.993  1.00 59.47 LIG-0.35  N 
ATOM     14 H    GLY B 218      -8.068  20.870  69.333  1.00 59.47 LIG 0.16  HD
ATOM     15 O    GLY B 217      -8.630  22.772  71.629  1.00 65.89 LIG-0.27  OA
BRANCH 13 16
ATOM     16  CA  GLY B 218      -9.809  20.694  70.229  1.00 64.42 LIG 0.23  C 
BRANCH 16 17
ATOM     17  C   GLY B 218     -10.928  21.643  69.837  1.00 64.00 LIG 0.23  C 
ATOM     18 O    GLY B 218     -10.722  22.745  69.318  1.00 58.72 LIG-0.27  OA
ATOM     19  N   GLN B 219     -12.150  21.187  70.094  1.00 74.28 LIG-0.35  N 
ATOM     20 H    GLN B 219     -12.312  20.398  70.398  1.00 74.28 LIG 0.16  HD
BRANCH 19 21
ATOM     21  CA  GLN B 219     -13.340  22.000  69.876  1.00 75.25 LIG 0.16  C 
BRANCH 21 22
ATOM     22  CB  GLN B 219     -13.304  22.662  68.495  1.00 86.28 LIG 0.04  C 
BRANCH 22 23
ATOM     23  CG  GLN B 219     -13.721  24.123  68.494  1.00 94.41 LIG 0.10  C 
BRANCH 23 24
ATOM     24  CD  GLN B 219     -14.895  24.396  67.575  1.00 99.68 LIG 0.21  C 
ATOM     25 OE1  GLN B 219     -15.759  23.541  67.378  1.00 99.85 LIG-0.27  OA
ATOM     26  NE2 GLN B 219     -14.929  25.594  67.003  1.00103.54 LIG-0.37  N 
ATOM     27 22HE GLN B 219     -15.573  25.798  66.471  1.00103.54 LIG 0.16  HD
ATOM     28 21HE GLN B 219     -14.307  26.165  67.165  1.00103.54 LIG 0.16  HD
ENDBRANCH 23 24
ENDBRANCH 22 23
ENDBRANCH 21 22
BRANCH 21 29
ATOM     29  C   GLN B 219     -14.592  21.145  70.012  1.00 69.40 LIG 0.22  C 
ATOM     30 O    GLN B 219     -15.337  20.970  69.053  1.00 67.07 LIG-0.29  OA
ENDBRANCH 21 29
ENDBRANCH 19 21
ENDBRANCH 16 17
ENDBRANCH 13 16
ENDBRANCH 11 12
ENDBRANCH 9 11
ENDBRANCH 6 7
ENDBRANCH 3 6
ENDBRANCH 1 2
BRANCH 1 31
ATOM     31  CB  SER B 215      -1.046  23.615  65.477  1.00 50.74 LIG 0.20  C 
BRANCH 31 32
ATOM     32 OG   SER B 215       0.339  23.682  65.184  1.00 51.75 LIG-0.40  OA
ATOM     33 HG   SER B 215       0.573  22.988  64.774  1.00 51.75 LIG 0.21  HD
ENDBRANCH 31 32
ENDBRANCH 1 31
BRANCH 1 34
ATOM     34  N   SER B 215      -0.715  21.485  66.654  1.00 54.58 LIG-0.34  N 
ATOM     35 H    SER B 215      -0.638  21.195  65.849  1.00 54.58 LIG 0.16  HD
ATOM     36  C   TYR B 214      -0.335  20.797  67.734  1.00 60.44 LIG 0.24  C 
ATOM     37 O    TYR B 214      -0.617  21.142  68.884  1.00 63.52 LIG-0.27  OA
BRANCH 36 38
ATOM     38  CA  TYR B 214       0.482  19.535  67.458  1.00 69.60 LIG 0.18  C 
BRANCH 38 39
ATOM     39  N   TYR B 214       1.543  19.814  66.501  1.00 70.42 LIG-0.34  N 
ATOM     40 H    TYR B 214       1.606  19.230  65.873  1.00 70.42 LIG 0.16  HD
ATOM     41  C   GLU B 213       2.337  20.872  66.591  1.00 68.24 LIG 0.26  C 
ATOM     42 O    GLU B 213       2.301  21.654  67.541  1.00 68.90 LIG-0.27  OA
BRANCH 41 43
ATOM     43  CA  GLU B 213       3.333  21.072  65.447  1.00 66.05 LIG 0.40  C 
ATOM     44  N   GLU B 213       2.774  20.648  64.169  1.00 67.54 LIG 0.61  N 
BRANCH 43 45
ATOM     45  CB  GLU B 213       3.758  22.542  65.377  1.00 68.67 LIG 0.06  C 
BRANCH 45 46
ATOM     46  CG  GLU B 213       5.210  22.760  64.947  1.00 74.56 LIG 0.12  C 
BRANCH 46 47
ATOM     47  CD  GLU B 213       6.219  22.098  65.880  1.00 75.07 LIG 0.17  C 
ATOM     48 OE1  GLU B 213       5.832  21.673  66.995  1.00 71.08 LIG-0.65  OA
ATOM     49 OE2  GLU B 213       7.404  22.006  65.496  1.00 77.01 LIG-0.65  OA
ENDBRANCH 46 47
ENDBRANCH 45 46
ENDBRANCH 43 45
ENDBRANCH 41 43
ENDBRANCH 38 39
BRANCH 38 50
ATOM     50  CB  TYR B 214       1.071  18.976  68.756  1.00 76.14 LIG 0.07  C 
BRANCH 50 51
ATOM     51  CG  TYR B 214       2.587  18.920  68.778  1.00 81.97 LIG-0.06  A 
ATOM     52  CD1 TYR B 214       3.277  17.908  68.121  1.00 81.11 LIG 0.01  A 
ATOM     53  CE1 TYR B 214       4.660  17.855  68.141  1.00 82.09 LIG 0.04  A 
ATOM     54  CZ  TYR B 214       5.372  18.820  68.824  1.00 85.00 LIG 0.07  A 
ATOM     55  CE2 TYR B 214       4.712  19.836  69.484  1.00 86.81 LIG 0.04  A 
ATOM     56  CD2 TYR B 214       3.328  19.880  69.459  1.00 86.12 LIG 0.01  A 
BRANCH 54 57
ATOM     57 OH   TYR B 214       6.747  18.770  68.847  1.00 86.93 LIG-0.36  OA
ATOM     58 HH   TYR B 214       7.058  19.543  68.733  1.00 86.93 LIG 0.22  HD
ENDBRANCH 54 57
ENDBRANCH 50 51
ENDBRANCH 38 50
ENDBRANCH 36 38
ENDBRANCH 1 34
TORSDOF 24
ENDMDL
MODEL 3
USER: ADFR SOLUTION from run 9
USER: SCORE 20.976272 LL:  -3.362 LR: -18.892 RR:   0.000 FEB: -11.733
USER: RMSD 3.026057
USER: SEED 699149
USER: STATUS searching
USER: GENES 26
USER: genes 0 Translation |==|  0.59789 0.68142 0.35921
USER: genes 1 Rotation |==|  0.53608 0.48885 0.50844 0.99850
USER: genes 2 Torsion [N]-CA--C-[N] |==|  0.00039
USER: genes 3 Torsion [C]-N--CA-[C] |==|  0.77225
USER: genes 4 Torsion [N]-CA--C-[N] |==|  0.39323
USER: genes 5 Torsion [C]-N--CA-[C] |==|  0.63000
USER: genes 6 Torsion [N]-CA--C-[N] |==|  0.14376
USER: genes 7 Torsion [C]-N--CA-[C] |==|  0.72232
USER: genes 8 Torsion [N]-CA--C-[N] |==|  0.57176
USER: genes 9 Torsion [C]-N--CA-[CB] |==|  0.54291
USER: genes 10 Torsion [N]-CA--CB-[CG] |==|  0.04085
USER: genes 11 Torsion [CA]-CB--CG-[CD] |==|  0.38694
USER: genes 12 Torsion [CB]-CG--CD-[OE1] |==|  0.15199
USER: genes 13 Torsion [N]-CA--C-[O] |==|  0.50372
USER: genes 14 Torsion [C]-CA--CB-[OG] |==|  0.52408
USER: genes 15 Torsion [CA]-CB--OG-[HG] |==|  0.13929
USER: genes 16 Torsion [C]-CA--N-[C] |==|  0.69357
USER: genes 17 Torsion [N]-C--CA-[N] |==|  0.44711
USER: genes 18 Torsion [C]-CA--N-[C] |==|  0.75479
USER: genes 19 Torsion [N]-C--CA-[N] |==|  0.99865
USER: genes 20 Torsion [C]-CA--CB-[CG] |==|  0.34276
USER: genes 21 Torsion [CA]-CB--CG-[CD] |==|  0.76508
USER: genes 22 Torsion [CB]-CG--CD-[OE1] |==|  0.65231
USER: genes 23 Torsion [C]-CA--CB-[CG] |==|  0.80036
USER: genes 24 Torsion [CA]-CB--CG-[CD1] |==|  0.27280
USER: genes 25 Torsion [CE1]-CZ--OH-[HH] |==|  0.79664
ROOT
ATOM      1  CA  SER B 215      -1.422  22.988  66.548  1.00 52.27 LIG 0.20  C 
ENDROOT
BRANCH 1 2
ATOM      2  C   SER B 215      -2.914  22.848  66.829  1.00 51.68 LIG 0.24  C 
ATOM      3  N   GLY B 216      -3.447  21.628  66.866  1.00 53.30 LIG-0.35  N 
ATOM      4 H    GLY B 216      -3.006  20.900  66.743  1.00 53.30 LIG 0.16  HD
ATOM      5 O    SER B 215      -3.589  23.868  67.008  1.00 50.19 LIG-0.27  OA
BRANCH 3 6
ATOM      6  CA  GLY B 216      -4.866  21.448  67.128  1.00 53.60 LIG 0.23  C 
BRANCH 6 7
ATOM      7  C   GLY B 216      -5.166  21.501  68.617  1.00 54.90 LIG 0.23  C 
ATOM      8 O    GLY B 216      -4.406  21.002  69.446  1.00 56.89 LIG-0.27  OA
ATOM      9  N   GLY B 217      -6.296  22.122  68.952  1.00 54.85 LIG-0.35  N 
ATOM     10 H    GLY B 217      -6.839  22.470  68.384  1.00 54.85 LIG 0.16  HD
BRANCH 9 11
ATOM     11  CA  GLY B 217      -6.703  22.261  70.337  1.00 55.68 LIG 0.23  C 
BRANCH 11 12
ATOM     12  C   GLY B 217      -8.156  21.904  70.573  1.00 61.00 LIG 0.23  C 
ATOM     13  N   GLY B 218      -8.569  20.725  70.113  1.00 59.47 LIG-0.35  N 
ATOM     14 H    GLY B 218      -8.079  20.195  69.645  1.00 59.47 LIG 0.16  HD
ATOM     15 O    GLY B 217      -8.904  22.689  71.162  1.00 65.89 LIG-0.27  OA
BRANCH 13 16
ATOM     16  CA  GLY B 218      -9.906  20.232  70.370  1.00 64.42 LIG 0.23  C 
BRANCH 16 17
ATOM     17  C   GLY B 218      -9.972  19.221  71.502  1.00 64.00 LIG 0.23  C 
ATOM     18 O    GLY B 218      -9.148  19.190  72.423  1.00 58.72 LIG-0.27  OA
ATOM     19  N   GLN B 219     -10.995  18.375  71.424  1.00 74.28 LIG-0.35  N 
ATOM     20 H    GLN B 219     -11.609  18.423  70.824  1.00 74.28 LIG 0.16  HD
BRANCH 19 21
ATOM     21  CA  GLN B 219     -11.162  17.276  72.366  1.00 75.25 LIG 0.16  C 
BRANCH 21 22
ATOM     22  CB  GLN B 219     -12.172  16.253  71.838  1.00 86.28 LIG 0.04  C 
BRANCH 22 23
ATOM     23  CG  GLN B 219     -12.494  16.402  70.361  1.00 94.41 LIG 0.10  C 
BRANCH 23 24
ATOM     24  CD  GLN B 219     -12.600  15.069  69.648  1.00 99.68 LIG 0.21  C 
ATOM     25 OE1  GLN B 219     -13.364  14.191  70.052  1.00 99.85 LIG-0.27  OA
ATOM     26  NE2 GLN B 219     -11.827  14.909  68.580  1.00103.54 LIG-0.37  N 
ATOM     27 22HE GLN B 219     -11.847  14.170  68.141  1.00103.54 LIG 0.16  HD
ATOM     28 21HE GLN B 219     -11.306  15.545  68.328  1.00103.54 LIG 0.16  HD
ENDBRANCH 23 24
ENDBRANCH 22 23
ENDBRANCH 21 22
BRANCH 21 29
ATOM     29  C   GLN B 219      -9.822  16.600  72.626  1.00 69.40 LIG 0.22  C 
ATOM     30 O    GLN B 219      -9.747  15.631  73.375  1.00 67.07 LIG-0.29  OA
ENDBRANCH 21 29
ENDBRANCH 19 21
ENDBRANCH 16 17
ENDBRANCH 13 16
ENDBRANCH 11 12
ENDBRANCH 9 11
ENDBRANCH 6 7
ENDBRANCH 3 6
ENDBRANCH 1 2
BRANCH 1 31
ATOM     31  CB  SER B 215      -1.232  23.896  65.324  1.00 50.74 LIG 0.20  C 
BRANCH 31 32
ATOM     32 OG   SER B 215       0.118  23.906  64.895  1.00 51.75 LIG-0.40  OA
ATOM     33 HG   SER B 215       0.393  23.116  64.817  1.00 51.75 LIG 0.21  HD
ENDBRANCH 31 32
ENDBRANCH 1 31
BRANCH 1 34
ATOM     34  N   SER B 215      -0.736  21.717  66.343  1.00 54.58 LIG-0.34  N 
ATOM     35 H    SER B 215      -0.943  21.316  65.611  1.00 54.58 LIG 0.16  HD
ATOM     36  C   TYR B 214       0.137  21.238  67.233  1.00 60.44 LIG 0.24  C 
ATOM     37 O    TYR B 214       0.287  21.727  68.356  1.00 63.52 LIG-0.27  OA
BRANCH 36 38
ATOM     38  CA  TYR B 214       0.951  20.029  66.775  1.00 69.60 LIG 0.18  C 
BRANCH 38 39
ATOM     39  N   TYR B 214       2.140  19.874  67.599  1.00 70.42 LIG-0.34  N 
ATOM     40 H    TYR B 214       2.026  19.359  68.279  1.00 70.42 LIG 0.16  HD
ATOM     41  C   GLU B 213       3.292  20.472  67.327  1.00 68.24 LIG 0.26  C 
ATOM     42 O    GLU B 213       3.423  21.278  66.406  1.00 68.90 LIG-0.27  OA
BRANCH 41 43
ATOM     43  CA  GLU B 213       4.471  20.120  68.237  1.00 66.05 LIG 0.40  C 
ATOM     44  N   GLU B 213       4.085  19.169  69.272  1.00 67.54 LIG 0.61  N 
BRANCH 43 45
ATOM     45  CB  GLU B 213       5.624  19.555  67.402  1.00 68.67 LIG 0.06  C 
BRANCH 45 46
ATOM     46  CG  GLU B 213       6.945  20.311  67.555  1.00 74.56 LIG 0.12  C 
BRANCH 46 47
ATOM     47  CD  GLU B 213       7.049  21.530  66.643  1.00 75.07 LIG 0.17  C 
ATOM     48 OE1  GLU B 213       8.031  21.631  65.869  1.00 71.08 LIG-0.65  OA
ATOM     49 OE2  GLU B 213       6.144  22.390  66.703  1.00 77.01 LIG-0.65  OA
ENDBRANCH 46 47
ENDBRANCH 45 46
ENDBRANCH 43 45
ENDBRANCH 41 43
ENDBRANCH 38 39
BRANCH 38 50
ATOM     50  CB  TYR B 214       0.102  18.756  66.822  1.00 76.14 LIG 0.07  C 
BRANCH 50 51
ATOM     51  CG  TYR B 214      -0.193  18.256  68.224  1.00 81.97 LIG-0.06  A 
ATOM     52  CD1 TYR B 214      -1.401  18.544  68.849  1.00 81.11 LIG 0.01  A 
ATOM     53  CE1 TYR B 214      -1.672  18.089  70.128  1.00 82.09 LIG 0.04  A 
ATOM     54  CZ  TYR B 214      -0.731  17.336  70.800  1.00 85.00 LIG 0.07  A 
ATOM     55  CE2 TYR B 214       0.476  17.035  70.203  1.00 86.81 LIG 0.04  A 
ATOM     56  CD2 TYR B 214       0.739  17.495  68.924  1.00 86.12 LIG 0.01  A 
BRANCH 54 57
ATOM     57 OH   TYR B 214      -0.996  16.883  72.072  1.00 86.93 LIG-0.36  OA
ATOM     58 HH   TYR B 214      -0.955  17.525  72.613  1.00 86.93 LIG 0.22  HD
ENDBRANCH 54 57
ENDBRANCH 50 51
ENDBRANCH 38 50
ENDBRANCH 36 38
ENDBRANCH 1 34
TORSDOF 24
ENDMDL
MODEL 4
USER: ADFR SOLUTION from run 12
USER: SCORE 19.903380 LL:  -4.112 LR: -18.532 RR:   0.000 FEB: -11.372
USER: RMSD 4.905699
USER: SEED 207482
USER: STATUS no improvement in best in 12 clusters for 5 generations
USER: GENES 26
USER: genes 0 Translation |==|  0.59153 0.69343 0.34428
USER: genes 1 Rotation |==|  0.43561 0.48784 0.55257 0.99289
USER: genes 2 Torsion [N]-CA--C-[N] |==|  0.92391
USER: genes 3 Torsion [C]-N--CA-[C] |==|  0.77566
USER: genes 4 Torsion [N]-CA--C-[N] |==|  0.37468
USER: genes 5 Torsion [C]-N--CA-[C] |==|  0.60868
USER: genes 6 Torsion [N]-CA--C-[N] |==|  0.16667
USER: genes 7 Torsion [C]-N--CA-[C] |==|  0.72973
USER: genes 8 Torsion [N]-CA--C-[N] |==|  0.70318
USER: genes 9 Torsion [C]-N--CA-[CB] |==|  0.43425
USER: genes 10 Torsion [N]-CA--CB-[CG] |==|  0.99277
USER: genes 11 Torsion [CA]-CB--CG-[CD] |==|  0.40493
USER: genes 12 Torsion [CB]-CG--CD-[OE1] |==|  0.17947
USER: genes 13 Torsion [N]-CA--C-[O] |==|  0.53583
USER: genes 14 Torsion [C]-CA--CB-[OG] |==|  0.47445
USER: genes 15 Torsion [CA]-CB--OG-[HG] |==|  0.23136
USER: genes 16 Torsion [C]-CA--N-[C] |==|  0.75805
USER: genes 17 Torsion [N]-C--CA-[N] |==|  0.70765
USER: genes 18 Torsion [C]-CA--N-[C] |==|  0.77586
USER: genes 19 Torsion [N]-C--CA-[N] |==|  0.93553
USER: genes 20 Torsion [C]-CA--CB-[CG] |==|  0.94999
USER: genes 21 Torsion [CA]-CB--CG-[CD] |==|  0.79067
USER: genes 22 Torsion [CB]-CG--CD-[OE1] |==|  0.04380
USER: genes 23 Torsion [C]-CA--CB-[CG] |==|  0.29670
USER: genes 24 Torsion [CA]-CB--CG-[CD1] |==|  0.16856
USER: genes 25 Torsion [CE1]-CZ--OH-[HH] |==|  0.27359
ROOT
ATOM      1  CA  SER B 215      -1.637  23.177  66.302  1.00 52.27 LIG 0.20  C 
ENDROOT
BRANCH 1 2
ATOM      2  C   SER B 215      -3.102  22.909  66.631  1.00 51.68 LIG 0.24  C 
ATOM      3  N   GLY B 216      -3.543  21.653  66.612  1.00 53.30 LIG-0.35  N 
ATOM      4 H    GLY B 216      -3.056  20.969  66.427  1.00 53.30 LIG 0.16  HD
ATOM      5 O    SER B 215      -3.840  23.865  66.898  1.00 50.19 LIG-0.27  OA
BRANCH 3 6
ATOM      6  CA  GLY B 216      -4.933  21.353  66.917  1.00 53.60 LIG 0.23  C 
BRANCH 6 7
ATOM      7  C   GLY B 216      -5.178  21.325  68.417  1.00 54.90 LIG 0.23  C 
ATOM      8 O    GLY B 216      -4.409  20.749  69.186  1.00 56.89 LIG-0.27  OA
ATOM      9  N   GLY B 217      -6.271  21.965  68.831  1.00 54.85 LIG-0.35  N 
ATOM     10 H    GLY B 217      -6.820  22.367  68.305  1.00 54.85 LIG 0.16  HD
BRANCH 9 11
ATOM     11  CA  GLY B 217      -6.624  22.033  70.235  1.00 55.68 LIG 0.23  C 
BRANCH 11 12
ATOM     12  C   GLY B 217      -8.111  21.898  70.487  1.00 61.00 LIG 0.23  C 
ATOM     13  N   GLY B 218      -8.690  20.770  70.080  1.00 59.47 LIG-0.35  N 
ATOM     14 H    GLY B 218      -8.284  20.156  69.636  1.00 59.47 LIG 0.16  HD
ATOM     15 O    GLY B 217      -8.736  22.806  71.041  1.00 65.89 LIG-0.27  OA
BRANCH 13 16
ATOM     16  CA  GLY B 218     -10.083  20.484  70.359  1.00 64.42 LIG 0.23  C 
BRANCH 16 17
ATOM     17  C   GLY B 218     -10.287  19.596  71.574  1.00 64.00 LIG 0.23  C 
ATOM     18 O    GLY B 218     -10.135  19.997  72.732  1.00 58.72 LIG-0.27  OA
ATOM     19  N   GLN B 219     -10.651  18.350  71.287  1.00 74.28 LIG-0.35  N 
ATOM     20 H    GLN B 219     -10.821  18.073  70.490  1.00 74.28 LIG 0.16  HD
BRANCH 19 21
ATOM     21  CA  GLN B 219     -10.796  17.330  72.319  1.00 75.25 LIG 0.16  C 
BRANCH 21 22
ATOM     22  CB  GLN B 219     -11.744  16.218  71.859  1.00 86.28 LIG 0.04  C 
BRANCH 22 23
ATOM     23  CG  GLN B 219     -12.358  16.451  70.488  1.00 94.41 LIG 0.10  C 
BRANCH 23 24
ATOM     24  CD  GLN B 219     -12.564  15.164  69.714  1.00 99.68 LIG 0.21  C 
ATOM     25 OE1  GLN B 219     -13.350  14.304  70.110  1.00 99.85 LIG-0.27  OA
ATOM     26  NE2 GLN B 219     -11.852  15.026  68.601  1.00103.54 LIG-0.37  N 
ATOM     27 22HE GLN B 219     -11.930  14.313  68.126  1.00103.54 LIG 0.16  HD
ATOM     28 21HE GLN B 219     -11.312  15.649  68.356  1.00103.54 LIG 0.16  HD
ENDBRANCH 23 24
ENDBRANCH 22 23
ENDBRANCH 21 22
BRANCH 21 29
ATOM     29  C   GLN B 219      -9.436  16.743  72.671  1.00 69.40 LIG 0.22  C 
ATOM     30 O    GLN B 219      -9.353  15.717  73.338  1.00 67.07 LIG-0.29  OA
ENDBRANCH 21 29
ENDBRANCH 19 21
ENDBRANCH 16 17
ENDBRANCH 13 16
ENDBRANCH 11 12
ENDBRANCH 9 11
ENDBRANCH 6 7
ENDBRANCH 3 6
ENDBRANCH 1 2
BRANCH 1 31
ATOM     31  CB  SER B 215      -1.523  23.552  64.817  1.00 50.74 LIG 0.20  C 
BRANCH 31 32
ATOM     32 OG   SER B 215      -0.222  24.015  64.501  1.00 51.75 LIG-0.40  OA
ATOM     33 HG   SER B 215       0.282  23.359  64.357  1.00 51.75 LIG 0.21  HD
ENDBRANCH 31 32
ENDBRANCH 1 31
BRANCH 1 34
ATOM     34  N   SER B 215      -0.747  22.062  66.608  1.00 54.58 LIG-0.34  N 
ATOM     35 H    SER B 215      -0.610  21.527  65.950  1.00 54.58 LIG 0.16  HD
ATOM     36  C   TYR B 214      -0.205  21.909  67.819  1.00 60.44 LIG 0.24  C 
ATOM     37 O    TYR B 214      -0.552  22.573  68.799  1.00 63.52 LIG-0.27  OA
BRANCH 36 38
ATOM     38  CA  TYR B 214       0.886  20.844  67.923  1.00 69.60 LIG 0.18  C 
BRANCH 38 39
ATOM     39  N   TYR B 214       0.377  19.659  68.600  1.00 70.42 LIG-0.34  N 
ATOM     40 H    TYR B 214       0.147  19.027  68.064  1.00 70.42 LIG 0.16  HD
ATOM     41  C   GLU B 213       0.279  19.566  69.919  1.00 68.24 LIG 0.26  C 
ATOM     42 O    GLU B 213       0.524  20.507  70.673  1.00 68.90 LIG-0.27  OA
BRANCH 41 43
ATOM     43  CA  GLU B 213      -0.178  18.214  70.472  1.00 66.05 LIG 0.40  C 
ATOM     44  N   GLU B 213      -0.927  17.454  69.478  1.00 67.54 LIG 0.61  N 
BRANCH 43 45
ATOM     45  CB  GLU B 213       1.034  17.410  70.950  1.00 68.67 LIG 0.06  C 
BRANCH 45 46
ATOM     46  CG  GLU B 213       2.374  17.898  70.395  1.00 74.56 LIG 0.12  C 
BRANCH 46 47
ATOM     47  CD  GLU B 213       2.597  17.510  68.937  1.00 75.07 LIG 0.17  C 
ATOM     48 OE1  GLU B 213       1.620  17.128  68.250  1.00 71.08 LIG-0.65  OA
ATOM     49 OE2  GLU B 213       3.757  17.586  68.478  1.00 77.01 LIG-0.65  OA
ENDBRANCH 46 47
ENDBRANCH 45 46
ENDBRANCH 43 45
ENDBRANCH 41 43
ENDBRANCH 38 39
BRANCH 38 50
ATOM     50  CB  TYR B 214       1.417  20.476  66.536  1.00 76.14 LIG 0.07  C 
BRANCH 50 51
ATOM     51  CG  TYR B 214       2.804  21.014  66.236  1.00 81.97 LIG-0.06  A 
ATOM     52  CD1 TYR B 214       3.898  20.650  67.013  1.00 81.11 LIG 0.01  A 
ATOM     53  CE1 TYR B 214       5.164  21.140  66.742  1.00 82.09 LIG 0.04  A 
ATOM     54  CZ  TYR B 214       5.349  22.006  65.683  1.00 85.00 LIG 0.07  A 
ATOM     55  CE2 TYR B 214       4.281  22.383  64.896  1.00 86.81 LIG 0.04  A 
ATOM     56  CD2 TYR B 214       3.019  21.888  65.175  1.00 86.12 LIG 0.01  A 
BRANCH 54 57
ATOM     57 OH   TYR B 214       6.607  22.496  65.411  1.00 86.93 LIG-0.36  OA
ATOM     58 HH   TYR B 214       6.954  22.047  64.791  1.00 86.93 LIG 0.22  HD
ENDBRANCH 54 57
ENDBRANCH 50 51
ENDBRANCH 38 50
ENDBRANCH 36 38
ENDBRANCH 1 34
TORSDOF 24
ENDMDL
MODEL 5
USER: ADFR SOLUTION from run 67
USER: SCORE 21.123884 LL:  -3.951 LR: -18.332 RR:   0.000 FEB: -11.172
USER: RMSD 3.303798
USER: SEED 66
USER: STATUS searching
USER: GENES 26
USER: genes 0 Translation |==|  0.59680 0.69041 0.35827
USER: genes 1 Rotation |==|  0.48243 0.48433 0.53670 0.99810
USER: genes 2 Torsion [N]-CA--C-[N] |==|  0.98363
USER: genes 3 Torsion [C]-N--CA-[C] |==|  0.77966
USER: genes 4 Torsion [N]-CA--C-[N] |==|  0.41668
USER: genes 5 Torsion [C]-N--CA-[C] |==|  0.59588
USER: genes 6 Torsion [N]-CA--C-[N] |==|  0.13581
USER: genes 7 Torsion [C]-N--CA-[C] |==|  0.71545
USER: genes 8 Torsion [N]-CA--C-[N] |==|  0.59374
USER: genes 9 Torsion [C]-N--CA-[CB] |==|  0.54324
USER: genes 10 Torsion [N]-CA--CB-[CG] |==|  0.98811
USER: genes 11 Torsion [CA]-CB--CG-[CD] |==|  0.41867
USER: genes 12 Torsion [CB]-CG--CD-[OE1] |==|  0.18606
USER: genes 13 Torsion [N]-CA--C-[O] |==|  0.53686
USER: genes 14 Torsion [C]-CA--CB-[OG] |==|  0.51800
USER: genes 15 Torsion [CA]-CB--OG-[HG] |==|  0.24187
USER: genes 16 Torsion [C]-CA--N-[C] |==|  0.75685
USER: genes 17 Torsion [N]-C--CA-[N] |==|  0.45549
USER: genes 18 Torsion [C]-CA--N-[C] |==|  0.63307
USER: genes 19 Torsion [N]-C--CA-[N] |==|  0.20743
USER: genes 20 Torsion [C]-CA--CB-[CG] |==|  0.40674
USER: genes 21 Torsion [CA]-CB--CG-[CD] |==|  0.94819
USER: genes 22 Torsion [CB]-CG--CD-[OE1] |==|  0.18058
USER: genes 23 Torsion [C]-CA--CB-[CG] |==|  0.77514
USER: genes 24 Torsion [CA]-CB--CG-[CD1] |==|  0.75255
USER: genes 25 Torsion [CE1]-CZ--OH-[HH] |==|  0.49141
ROOT
ATOM      1  CA  SER B 215      -1.459  23.130  66.532  1.00 52.27 LIG 0.20  C 
ENDROOT
BRANCH 1 2
ATOM      2  C   SER B 215      -2.939  22.890  66.810  1.00 51.68 LIG 0.24  C 
ATOM      3  N   GLY B 216      -3.365  21.640  66.980  1.00 53.30 LIG-0.35  N 
ATOM      4 H    GLY B 216      -2.860  20.945  66.946  1.00 53.30 LIG 0.16  HD
ATOM      5 O    SER B 215      -3.703  23.861  66.864  1.00 50.19 LIG-0.27  OA
BRANCH 3 6
ATOM      6  CA  GLY B 216      -4.769  21.366  67.244  1.00 53.60 LIG 0.23  C 
BRANCH 6 7
ATOM      7  C   GLY B 216      -5.119  21.623  68.701  1.00 54.90 LIG 0.23  C 
ATOM      8 O    GLY B 216      -4.289  21.481  69.598  1.00 56.89 LIG-0.27  OA
ATOM      9  N   GLY B 217      -6.373  22.011  68.929  1.00 54.85 LIG-0.35  N 
ATOM     10 H    GLY B 217      -6.965  22.108  68.313  1.00 54.85 LIG 0.16  HD
BRANCH 9 11
ATOM     11  CA  GLY B 217      -6.845  22.304  70.268  1.00 55.68 LIG 0.23  C 
BRANCH 11 12
ATOM     12  C   GLY B 217      -8.293  21.922  70.491  1.00 61.00 LIG 0.23  C 
ATOM     13  N   GLY B 218      -8.657  20.698  70.113  1.00 59.47 LIG-0.35  N 
ATOM     14 H    GLY B 218      -8.139  20.149  69.701  1.00 59.47 LIG 0.16  HD
ATOM     15 O    GLY B 217      -9.080  22.726  70.997  1.00 65.89 LIG-0.27  OA
BRANCH 13 16
ATOM     16  CA  GLY B 218      -9.988  20.185  70.371  1.00 64.42 LIG 0.23  C 
BRANCH 16 17
ATOM     17  C   GLY B 218     -10.047  19.216  71.540  1.00 64.00 LIG 0.23  C 
ATOM     18 O    GLY B 218      -9.329  19.325  72.539  1.00 58.72 LIG-0.27  OA
ATOM     19  N   GLN B 219     -10.943  18.244  71.401  1.00 74.28 LIG-0.35  N 
ATOM     20 H    GLN B 219     -11.492  18.190  70.740  1.00 74.28 LIG 0.16  HD
BRANCH 19 21
ATOM     21  CA  GLN B 219     -11.071  17.168  72.375  1.00 75.25 LIG 0.16  C 
BRANCH 21 22
ATOM     22  CB  GLN B 219     -11.883  16.003  71.799  1.00 86.28 LIG 0.04  C 
BRANCH 22 23
ATOM     23  CG  GLN B 219     -12.448  16.264  70.412  1.00 94.41 LIG 0.10  C 
BRANCH 23 24
ATOM     24  CD  GLN B 219     -12.601  14.997  69.595  1.00 99.68 LIG 0.21  C 
ATOM     25 OE1  GLN B 219     -13.416  14.131  69.913  1.00 99.85 LIG-0.27  OA
ATOM     26  NE2 GLN B 219     -11.810  14.881  68.534  1.00103.54 LIG-0.37  N 
ATOM     27 22HE GLN B 219     -11.855  14.180  68.038  1.00103.54 LIG 0.16  HD
ATOM     28 21HE GLN B 219     -11.252  15.508  68.344  1.00103.54 LIG 0.16  HD
ENDBRANCH 23 24
ENDBRANCH 22 23
ENDBRANCH 21 22
BRANCH 21 29
ATOM     29  C   GLN B 219      -9.694  16.681  72.804  1.00 69.40 LIG 0.22  C 
ATOM     30 O    GLN B 219      -9.568  15.631  73.427  1.00 67.07 LIG-0.29  OA
ENDBRANCH 21 29
ENDBRANCH 19 21
ENDBRANCH 16 17
ENDBRANCH 13 16
ENDBRANCH 11 12
ENDBRANCH 9 11
ENDBRANCH 6 7
ENDBRANCH 3 6
ENDBRANCH 1 2
BRANCH 1 31
ATOM     31  CB  SER B 215      -1.313  23.772  65.145  1.00 50.74 LIG 0.20  C 
BRANCH 31 32
ATOM     32 OG   SER B 215       0.049  23.883  64.770  1.00 51.75 LIG-0.40  OA
ATOM     33 HG   SER B 215       0.295  23.172  64.396  1.00 51.75 LIG 0.21  HD
ENDBRANCH 31 32
ENDBRANCH 1 31
BRANCH 1 34
ATOM     34  N   SER B 215      -0.638  21.927  66.619  1.00 54.58 LIG-0.34  N 
ATOM     35 H    SER B 215      -0.532  21.515  65.872  1.00 54.58 LIG 0.16  HD
ATOM     36  C   TYR B 214      -0.108  21.520  67.775  1.00 60.44 LIG 0.24  C 
ATOM     37 O    TYR B 214      -0.416  22.011  68.865  1.00 63.52 LIG-0.27  OA
BRANCH 36 38
ATOM     38  CA  TYR B 214       0.918  20.392  67.670  1.00 69.60 LIG 0.18  C 
BRANCH 38 39
ATOM     39  N   TYR B 214       1.691  20.291  68.900  1.00 70.42 LIG-0.34  N 
ATOM     40 H    TYR B 214       1.210  20.293  69.612  1.00 70.42 LIG 0.16  HD
ATOM     41  C   GLU B 213       3.014  20.204  68.917  1.00 68.24 LIG 0.26  C 
ATOM     42 O    GLU B 213       3.701  20.293  67.899  1.00 68.90 LIG-0.27  OA
BRANCH 41 43
ATOM     43  CA  GLU B 213       3.663  20.000  70.287  1.00 66.05 LIG 0.40  C 
ATOM     44  N   GLU B 213       3.484  18.635  70.767  1.00 67.54 LIG 0.61  N 
BRANCH 43 45
ATOM     45  CB  GLU B 213       5.154  20.345  70.214  1.00 68.67 LIG 0.06  C 
BRANCH 45 46
ATOM     46  CG  GLU B 213       5.723  20.959  71.495  1.00 74.56 LIG 0.12  C 
BRANCH 46 47
ATOM     47  CD  GLU B 213       4.649  21.523  72.420  1.00 75.07 LIG 0.17  C 
ATOM     48 OE1  GLU B 213       3.821  20.739  72.943  1.00 71.08 LIG-0.65  OA
ATOM     49 OE2  GLU B 213       4.634  22.756  72.621  1.00 77.01 LIG-0.65  OA
ENDBRANCH 46 47
ENDBRANCH 45 46
ENDBRANCH 43 45
ENDBRANCH 41 43
ENDBRANCH 38 39
BRANCH 38 50
ATOM     50  CB  TYR B 214       0.228  19.060  67.366  1.00 76.14 LIG 0.07  C 
BRANCH 50 51
ATOM     51  CG  TYR B 214      -0.373  18.378  68.581  1.00 81.97 LIG-0.06  A 
ATOM     52  CD1 TYR B 214       0.375  17.495  69.352  1.00 81.11 LIG 0.01  A 
ATOM     53  CE1 TYR B 214      -0.171  16.872  70.460  1.00 82.09 LIG 0.04  A 
ATOM     54  CZ  TYR B 214      -1.481  17.127  70.812  1.00 85.00 LIG 0.07  A 
ATOM     55  CE2 TYR B 214      -2.246  17.998  70.065  1.00 86.81 LIG 0.04  A 
ATOM     56  CD2 TYR B 214      -1.692  18.616  68.957  1.00 86.12 LIG 0.01  A 
BRANCH 54 57
ATOM     57 OH   TYR B 214      -2.028  16.508  71.913  1.00 86.93 LIG-0.36  OA
ATOM     58 HH   TYR B 214      -2.812  16.787  72.031  1.00 86.93 LIG 0.22  HD
ENDBRANCH 54 57
ENDBRANCH 50 51
ENDBRANCH 38 50
ENDBRANCH 36 38
ENDBRANCH 1 34
TORSDOF 24
ENDMDL
