MODEL 1
USER: ADFR SOLUTION from run 69
USER: SCORE 19.327858 LL:  -5.031 LR: -16.616 RR:   0.000 FEB: -10.650
USER: RMSD 4.228254
USER: SEED 68
USER: STATUS no improvement in best in 12 clusters for 5 generations
USER: GENES 22
USER: genes 0 Translation |==|  0.44573 0.50668 0.42917
USER: genes 1 Rotation |==|  0.50904 0.54126 0.53864 0.99671
USER: genes 2 Torsion [N]-CA--C-[N] |==|  0.33676
USER: genes 3 Torsion [C]-N--CA-[CB] |==|  0.42356
USER: genes 4 Torsion [N]-CA--CB-[CG] |==|  0.52833
USER: genes 5 Torsion [CA]-CB--CG-[CD] |==|  0.17581
USER: genes 6 Torsion [CB]-CG--CD-[OE1] |==|  0.01773
USER: genes 7 Torsion [N]-CA--C-[N] |==|  0.30904
USER: genes 8 Torsion [C]-N--CA-[C] |==|  0.73428
USER: genes 9 Torsion [N]-CA--C-[O] |==|  0.44092
USER: genes 10 Torsion [N]-CA--CB-[CG] |==|  0.84522
USER: genes 11 Torsion [CA]-CB--CG-[CD1] |==|  0.20953
USER: genes 12 Torsion [C]-CA--CB-[CG] |==|  0.35073
USER: genes 13 Torsion [CA]-CB--CG-[CD1] |==|  0.54496
USER: genes 14 Torsion [CE1]-CZ--OH-[HH] |==|  0.35770
USER: genes 15 Torsion [C]-CA--N-[C] |==|  0.69559
USER: genes 16 Torsion [N]-C--CA-[N] |==|  0.76723
USER: genes 17 Torsion [C]-CA--N-[C] |==|  0.66921
USER: genes 18 Torsion [N]-C--CA-[N] |==|  0.59313
USER: genes 19 Torsion [C]-CA--CB-[CG] |==|  0.73006
USER: genes 20 Torsion [CA]-CB--CG-[CD2] |==|  0.61403
USER: genes 21 Torsion [C]-CA--CB-[CG2] |==|  0.60918
ROOT
ATOM      1  CA  TYR P   8      81.328  -2.017  59.465  1.00 57.99 LIG 0.18  C 
ENDROOT
BRANCH 1 2
ATOM      2  C   TYR P   8      80.769  -0.683  59.940  1.00 56.68 LIG 0.24  C 
ATOM      3  N   GLN P   9      79.804  -0.148  59.200  1.00 57.67 LIG-0.35  N 
ATOM      4 H    GLN P   9      79.530  -0.482  58.456  1.00 57.67 LIG 0.16  HD
ATOM      5 O    TYR P   8      81.211  -0.153  60.964  1.00 54.26 LIG-0.27  OA
BRANCH 3 6
ATOM      6  CA  GLN P   9      79.115   1.073  59.597  1.00 54.86 LIG 0.18  C 
BRANCH 6 7
ATOM      7  CB  GLN P   9      78.593   1.830  58.379  1.00 52.41 LIG 0.04  C 
BRANCH 7 8
ATOM      8  CG  GLN P   9      78.083   3.225  58.695  1.00 53.63 LIG 0.10  C 
BRANCH 8 9
ATOM      9  CD  GLN P   9      79.175   4.130  59.219  1.00 56.56 LIG 0.21  C 
ATOM     10 OE1  GLN P   9      80.347   3.753  59.240  1.00 59.67 LIG-0.27  OA
ATOM     11  NE2 GLN P   9      78.799   5.331  59.647  1.00 58.55 LIG-0.37  N 
ATOM     12 22HE GLN P   9      79.385   5.880  59.955  1.00 58.55 LIG 0.16  HD
ATOM     13 21HE GLN P   9      77.971   5.558  59.617  1.00 58.55 LIG 0.16  HD
ENDBRANCH 8 9
ENDBRANCH 7 8
ENDBRANCH 6 7
BRANCH 6 14
ATOM     14  C   GLN P   9      77.971   0.710  60.535  1.00 54.72 LIG 0.24  C 
ATOM     15 O    GLN P   9      76.990   0.087  60.113  1.00 59.60 LIG-0.27  OA
ATOM     16  N   PHE P  10      78.100   1.087  61.802  1.00 49.02 LIG-0.34  N 
ATOM     17 H    PHE P  10      78.796   1.477  62.124  1.00 49.02 LIG 0.16  HD
BRANCH 16 18
ATOM     18  CA  PHE P  10      77.033   0.855  62.766  1.00 50.33 LIG 0.19  C 
BRANCH 18 19
ATOM     19  C   PHE P  10      76.142   2.082  62.920  1.00 49.91 LIG 0.20  C 
ATOM     20 O    PHE P  10      74.998   1.970  63.365  1.00 45.93 LIG-0.65  OA
ATOM     21 OXT  PHE P  10      76.543   3.201  62.595  1.00 46.36 LIG-0.65  OA
ENDBRANCH 18 19
BRANCH 18 22
ATOM     22  CB  PHE P  10      77.606   0.436  64.122  1.00 51.88 LIG 0.07  C 
BRANCH 22 23
ATOM     23  CG  PHE P  10      78.506  -0.770  64.070  1.00 51.17 LIG-0.06  A 
ATOM     24  CD1 PHE P  10      79.796  -0.667  63.576  1.00 49.53 LIG 0.01  A 
ATOM     25  CE1 PHE P  10      80.618  -1.775  63.514  1.00 54.45 LIG 0.00  A 
ATOM     26  CZ  PHE P  10      80.151  -3.006  63.930  1.00 54.40 LIG 0.00  A 
ATOM     27  CE2 PHE P  10      78.867  -3.124  64.417  1.00 52.97 LIG 0.00  A 
ATOM     28  CD2 PHE P  10      78.048  -2.012  64.479  1.00 50.02 LIG 0.01  A 
ENDBRANCH 22 23
ENDBRANCH 18 22
ENDBRANCH 16 18
ENDBRANCH 6 14
ENDBRANCH 3 6
ENDBRANCH 1 2
BRANCH 1 29
ATOM     29  CB  TYR P   8      81.048  -3.101  60.504  1.00 54.61 LIG 0.07  C 
BRANCH 29 30
ATOM     30  CG  TYR P   8      80.341  -4.321  59.966  1.00 66.64 LIG-0.06  A 
ATOM     31  CD1 TYR P   8      79.729  -5.226  60.824  1.00 68.29 LIG 0.01  A 
ATOM     32  CE1 TYR P   8      79.086  -6.346  60.338  1.00 71.89 LIG 0.04  A 
ATOM     33  CZ  TYR P   8      79.054  -6.575  58.978  1.00 71.50 LIG 0.07  A 
ATOM     34  CE2 TYR P   8      79.658  -5.694  58.107  1.00 69.11 LIG 0.04  A 
ATOM     35  CD2 TYR P   8      80.299  -4.578  58.602  1.00 65.21 LIG 0.01  A 
BRANCH 33 36
ATOM     36 OH   TYR P   8      78.415  -7.690  58.490  1.00 83.55 LIG-0.36  OA
ATOM     37 HH   TYR P   8      77.877  -7.463  57.887  1.00 83.55 LIG 0.22  HD
ENDBRANCH 33 36
ENDBRANCH 29 30
ENDBRANCH 1 29
BRANCH 1 38
ATOM     38  N   TYR P   8      82.757  -1.868  59.231  1.00 59.31 LIG-0.35  N 
ATOM     39  C   VAL P   7      83.295  -1.879  58.014  1.00 65.10 LIG 0.24  C 
ATOM     40 O    VAL P   7      82.635  -2.087  56.987  1.00 66.40 LIG-0.27  OA
ATOM     41 H    TYR P   8      83.219  -1.773  59.950  1.00 59.31 LIG 0.16  HD
BRANCH 39 42
ATOM     42  CA  VAL P   7      84.794  -1.624  57.936  1.00 68.90 LIG 0.18  C 
BRANCH 42 43
ATOM     43  N   VAL P   7      85.028  -0.186  57.944  1.00 69.26 LIG-0.34  N 
ATOM     44  C   LEU P   6      85.626   0.454  56.944  1.00 74.59 LIG 0.26  C 
ATOM     45 O    LEU P   6      85.993  -0.117  55.913  1.00 73.78 LIG-0.27  OA
ATOM     46 H    VAL P   7      84.744   0.208  58.654  1.00 69.26 LIG 0.16  HD
BRANCH 44 47
ATOM     47  CA  LEU P   6      85.814   1.961  57.140  1.00 78.06 LIG 0.40  C 
ATOM     48  N   LEU P   6      85.707   2.660  55.865  1.00 74.40 LIG 0.61  N 
BRANCH 47 49
ATOM     49  CB  LEU P   6      84.800   2.523  58.145  1.00 78.52 LIG 0.06  C 
BRANCH 49 50
ATOM     50  CG  LEU P   6      83.506   3.192  57.670  1.00 77.43 LIG-0.02  C 
ATOM     51  CD2 LEU P   6      83.171   4.439  58.480  1.00 73.93 LIG 0.01  C 
ATOM     52  CD1 LEU P   6      82.391   2.171  57.740  1.00 75.78 LIG 0.01  C 
ENDBRANCH 49 50
ENDBRANCH 47 49
ENDBRANCH 44 47
ENDBRANCH 42 43
BRANCH 42 53
ATOM     53  CB  VAL P   7      85.534  -2.312  59.096  1.00 67.45 LIG 0.01  C 
ATOM     54  CG2 VAL P   7      86.645  -1.417  59.615  1.00 67.18 LIG 0.01  C 
ATOM     55  CG1 VAL P   7      86.096  -3.646  58.649  1.00 63.58 LIG 0.01  C 
ENDBRANCH 42 53
ENDBRANCH 39 42
ENDBRANCH 1 38
TORSDOF 20
ENDMDL
MODEL 2
USER: ADFR SOLUTION from run 75
USER: SCORE 19.058785 LL:  -4.306 LR: -16.330 RR:   0.000 FEB: -10.364
USER: RMSD 4.099425
USER: SEED 74
USER: STATUS no improvement in best in 7 clusters for 5 generations
USER: GENES 22
USER: genes 0 Translation |==|  0.42843 0.44125 0.43695
USER: genes 1 Rotation |==|  0.45649 0.46329 0.44473 0.99366
USER: genes 2 Torsion [N]-CA--C-[N] |==|  0.46077
USER: genes 3 Torsion [C]-N--CA-[CB] |==|  0.30323
USER: genes 4 Torsion [N]-CA--CB-[CG] |==|  0.05554
USER: genes 5 Torsion [CA]-CB--CG-[CD] |==|  0.21569
USER: genes 6 Torsion [CB]-CG--CD-[OE1] |==|  0.03206
USER: genes 7 Torsion [N]-CA--C-[N] |==|  0.39639
USER: genes 8 Torsion [C]-N--CA-[C] |==|  0.48756
USER: genes 9 Torsion [N]-CA--C-[O] |==|  0.54558
USER: genes 10 Torsion [N]-CA--CB-[CG] |==|  0.20472
USER: genes 11 Torsion [CA]-CB--CG-[CD1] |==|  0.95470
USER: genes 12 Torsion [C]-CA--CB-[CG] |==|  0.85826
USER: genes 13 Torsion [CA]-CB--CG-[CD1] |==|  0.93025
USER: genes 14 Torsion [CE1]-CZ--OH-[HH] |==|  0.47079
USER: genes 15 Torsion [C]-CA--N-[C] |==|  0.57001
USER: genes 16 Torsion [N]-C--CA-[N] |==|  0.42266
USER: genes 17 Torsion [C]-CA--N-[C] |==|  0.76209
USER: genes 18 Torsion [N]-C--CA-[N] |==|  0.47865
USER: genes 19 Torsion [C]-CA--CB-[CG] |==|  0.97627
USER: genes 20 Torsion [CA]-CB--CG-[CD2] |==|  0.81107
USER: genes 21 Torsion [C]-CA--CB-[CG2] |==|  0.55277
ROOT
ATOM      1  CA  TYR P   8      80.939  -3.489  59.605  1.00 57.99 LIG 0.18  C 
ENDROOT
BRANCH 1 2
ATOM      2  C   TYR P   8      80.827  -1.972  59.651  1.00 56.68 LIG 0.24  C 
ATOM      3  N   GLN P   9      79.710  -1.445  59.159  1.00 57.67 LIG-0.35  N 
ATOM      4 H    GLN P   9      79.094  -1.904  58.774  1.00 57.67 LIG 0.16  HD
ATOM      5 O    TYR P   8      81.743  -1.294  60.128  1.00 54.26 LIG-0.27  OA
BRANCH 3 6
ATOM      6  CA  GLN P   9      79.434  -0.016  59.234  1.00 54.86 LIG 0.18  C 
BRANCH 6 7
ATOM      7  CB  GLN P   9      79.530   0.634  57.856  1.00 52.41 LIG 0.04  C 
BRANCH 7 8
ATOM      8  CG  GLN P   9      79.404  -0.347  56.704  1.00 53.63 LIG 0.10  C 
BRANCH 8 9
ATOM      9  CD  GLN P   9      77.971  -0.759  56.456  1.00 56.56 LIG 0.21  C 
ATOM     10 OE1  GLN P   9      77.042  -0.160  56.999  1.00 59.67 LIG-0.27  OA
ATOM     11  NE2 GLN P   9      77.780  -1.786  55.634  1.00 58.55 LIG-0.37  N 
ATOM     12 22HE GLN P   9      76.982  -2.057  55.462  1.00 58.55 LIG 0.16  HD
ATOM     13 21HE GLN P   9      78.454  -2.179  55.274  1.00 58.55 LIG 0.16  HD
ENDBRANCH 8 9
ENDBRANCH 7 8
ENDBRANCH 6 7
BRANCH 6 14
ATOM     14  C   GLN P   9      78.047   0.187  59.828  1.00 54.72 LIG 0.24  C 
ATOM     15 O    GLN P   9      77.129  -0.596  59.555  1.00 59.60 LIG-0.27  OA
ATOM     16  N   PHE P  10      77.897   1.223  60.645  1.00 49.02 LIG-0.34  N 
ATOM     17 H    PHE P  10      78.535   1.748  60.885  1.00 49.02 LIG 0.16  HD
BRANCH 16 18
ATOM     18  CA  PHE P  10      76.595   1.551  61.209  1.00 50.33 LIG 0.19  C 
BRANCH 18 19
ATOM     19  C   PHE P  10      76.688   2.707  62.198  1.00 49.91 LIG 0.20  C 
ATOM     20 O    PHE P  10      75.769   2.926  62.990  1.00 45.93 LIG-0.65  OA
ATOM     21 OXT  PHE P  10      77.674   3.446  62.218  1.00 46.36 LIG-0.65  OA
ENDBRANCH 18 19
BRANCH 18 22
ATOM     22  CB  PHE P  10      75.968   0.324  61.878  1.00 51.88 LIG 0.07  C 
BRANCH 22 23
ATOM     23  CG  PHE P  10      76.598  -0.057  63.191  1.00 51.17 LIG-0.06  A 
ATOM     24  CD1 PHE P  10      77.840   0.442  63.549  1.00 49.53 LIG 0.01  A 
ATOM     25  CE1 PHE P  10      78.426   0.083  64.746  1.00 54.45 LIG 0.00  A 
ATOM     26  CZ  PHE P  10      77.782  -0.796  65.595  1.00 54.40 LIG 0.00  A 
ATOM     27  CE2 PHE P  10      76.549  -1.305  65.248  1.00 52.97 LIG 0.00  A 
ATOM     28  CD2 PHE P  10      75.965  -0.942  64.049  1.00 50.02 LIG 0.01  A 
ENDBRANCH 22 23
ENDBRANCH 18 22
ENDBRANCH 16 18
ENDBRANCH 6 14
ENDBRANCH 3 6
ENDBRANCH 1 2
BRANCH 1 29
ATOM     29  CB  TYR P   8      79.998  -4.114  60.634  1.00 54.61 LIG 0.07  C 
BRANCH 29 30
ATOM     30  CG  TYR P   8      80.126  -3.550  62.028  1.00 66.64 LIG-0.06  A 
ATOM     31  CD1 TYR P   8      81.310  -2.960  62.452  1.00 68.29 LIG 0.01  A 
ATOM     32  CE1 TYR P   8      81.435  -2.447  63.726  1.00 71.89 LIG 0.04  A 
ATOM     33  CZ  TYR P   8      80.369  -2.525  64.597  1.00 71.50 LIG 0.07  A 
ATOM     34  CE2 TYR P   8      79.184  -3.109  64.202  1.00 69.11 LIG 0.04  A 
ATOM     35  CD2 TYR P   8      79.070  -3.620  62.926  1.00 65.21 LIG 0.01  A 
BRANCH 33 36
ATOM     36 OH   TYR P   8      80.489  -2.015  65.869  1.00 83.55 LIG-0.36  OA
ATOM     37 HH   TYR P   8      79.734  -1.998  66.237  1.00 83.55 LIG 0.22  HD
ENDBRANCH 33 36
ENDBRANCH 29 30
ENDBRANCH 1 29
BRANCH 1 38
ATOM     38  N   TYR P   8      82.322  -3.864  59.860  1.00 59.31 LIG-0.35  N 
ATOM     39  C   VAL P   7      82.853  -5.004  59.428  1.00 65.10 LIG 0.24  C 
ATOM     40 O    VAL P   7      82.197  -5.872  58.836  1.00 66.40 LIG-0.27  OA
ATOM     41 H    TYR P   8      82.762  -3.281  60.315  1.00 59.31 LIG 0.16  HD
BRANCH 39 42
ATOM     42  CA  VAL P   7      84.337  -5.205  59.704  1.00 68.90 LIG 0.18  C 
BRANCH 42 43
ATOM     43  N   VAL P   7      84.609  -6.633  59.801  1.00 69.26 LIG-0.34  N 
ATOM     44  C   LEU P   6      84.464  -7.321  60.930  1.00 74.59 LIG 0.26  C 
ATOM     45 O    LEU P   6      84.049  -6.809  61.973  1.00 73.78 LIG-0.27  OA
ATOM     46 H    VAL P   7      84.871  -6.988  59.063  1.00 69.26 LIG 0.16  HD
BRANCH 44 47
ATOM     47  CA  LEU P   6      84.826  -8.806  60.851  1.00 78.06 LIG 0.40  C 
ATOM     48  N   LEU P   6      84.802  -9.411  62.178  1.00 74.40 LIG 0.61  N 
BRANCH 47 49
ATOM     49  CB  LEU P   6      83.883  -9.560  59.904  1.00 78.52 LIG 0.06  C 
BRANCH 49 50
ATOM     50  CG  LEU P   6      82.638  -8.881  59.324  1.00 77.43 LIG-0.02  C 
ATOM     51  CD2 LEU P   6      81.588  -8.594  60.391  1.00 73.93 LIG 0.01  C 
ATOM     52  CD1 LEU P   6      82.083  -9.765  58.228  1.00 75.78 LIG 0.01  C 
ENDBRANCH 49 50
ENDBRANCH 47 49
ENDBRANCH 44 47
ENDBRANCH 42 43
BRANCH 42 53
ATOM     53  CB  VAL P   7      85.197  -4.551  58.609  1.00 67.45 LIG 0.01  C 
ATOM     54  CG2 VAL P   7      86.599  -5.134  58.624  1.00 67.18 LIG 0.01  C 
ATOM     55  CG1 VAL P   7      85.248  -3.048  58.803  1.00 63.58 LIG 0.01  C 
ENDBRANCH 42 53
ENDBRANCH 39 42
ENDBRANCH 1 38
TORSDOF 20
ENDMDL
MODEL 3
USER: ADFR SOLUTION from run 79
USER: SCORE 18.944312 LL:  -4.843 LR: -16.297 RR:   0.000 FEB: -10.331
USER: RMSD 4.389896
USER: SEED 78
USER: STATUS no improvement in best in 19 clusters for 5 generations
USER: GENES 22
USER: genes 0 Translation |==|  0.42721 0.46655 0.40234
USER: genes 1 Rotation |==|  0.41941 0.46746 0.44922 0.98976
USER: genes 2 Torsion [N]-CA--C-[N] |==|  0.51396
USER: genes 3 Torsion [C]-N--CA-[CB] |==|  0.25090
USER: genes 4 Torsion [N]-CA--CB-[CG] |==|  0.03889
USER: genes 5 Torsion [CA]-CB--CG-[CD] |==|  0.22714
USER: genes 6 Torsion [CB]-CG--CD-[OE1] |==|  0.04734
USER: genes 7 Torsion [N]-CA--C-[N] |==|  0.29227
USER: genes 8 Torsion [C]-N--CA-[C] |==|  0.54420
USER: genes 9 Torsion [N]-CA--C-[O] |==|  0.43078
USER: genes 10 Torsion [N]-CA--CB-[CG] |==|  0.20121
USER: genes 11 Torsion [CA]-CB--CG-[CD1] |==|  0.71470
USER: genes 12 Torsion [C]-CA--CB-[CG] |==|  0.82038
USER: genes 13 Torsion [CA]-CB--CG-[CD1] |==|  0.66112
USER: genes 14 Torsion [CE1]-CZ--OH-[HH] |==|  0.69087
USER: genes 15 Torsion [C]-CA--N-[C] |==|  0.67572
USER: genes 16 Torsion [N]-C--CA-[N] |==|  0.87129
USER: genes 17 Torsion [C]-CA--N-[C] |==|  0.60628
USER: genes 18 Torsion [N]-C--CA-[N] |==|  0.56191
USER: genes 19 Torsion [C]-CA--CB-[CG] |==|  0.69545
USER: genes 20 Torsion [CA]-CB--CG-[CD2] |==|  0.72319
USER: genes 21 Torsion [C]-CA--CB-[CG2] |==|  0.36469
ROOT
ATOM      1  CA  TYR P   8      80.911  -2.920  58.982  1.00 57.99 LIG 0.18  C 
ENDROOT
BRANCH 1 2
ATOM      2  C   TYR P   8      80.792  -1.412  58.808  1.00 56.68 LIG 0.24  C 
ATOM      3  N   GLN P   9      79.563  -0.928  58.665  1.00 57.67 LIG-0.35  N 
ATOM      4 H    GLN P   9      78.859  -1.419  58.608  1.00 57.67 LIG 0.16  HD
ATOM      5 O    TYR P   8      81.804  -0.704  58.807  1.00 54.26 LIG-0.27  OA
BRANCH 3 6
ATOM      6  CA  GLN P   9      79.302   0.503  58.591  1.00 54.86 LIG 0.18  C 
BRANCH 6 7
ATOM      7  CB  GLN P   9      79.343   0.995  57.146  1.00 52.41 LIG 0.04  C 
BRANCH 7 8
ATOM      8  CG  GLN P   9      79.303  -0.121  56.116  1.00 53.63 LIG 0.10  C 
BRANCH 8 9
ATOM      9  CD  GLN P   9      77.897  -0.612  55.858  1.00 56.56 LIG 0.21  C 
ATOM     10 OE1  GLN P   9      76.924   0.062  56.195  1.00 59.67 LIG-0.27  OA
ATOM     11  NE2 GLN P   9      77.779  -1.792  55.258  1.00 58.55 LIG-0.37  N 
ATOM     12 22HE GLN P   9      76.999  -2.114  55.090  1.00 58.55 LIG 0.16  HD
ATOM     13 21HE GLN P   9      78.483  -2.234  55.037  1.00 58.55 LIG 0.16  HD
ENDBRANCH 8 9
ENDBRANCH 7 8
ENDBRANCH 6 7
BRANCH 6 14
ATOM     14  C   GLN P   9      77.943   0.790  59.217  1.00 54.72 LIG 0.24  C 
ATOM     15 O    GLN P   9      76.904   0.494  58.617  1.00 59.60 LIG-0.27  OA
ATOM     16  N   PHE P  10      77.951   1.349  60.422  1.00 49.02 LIG-0.34  N 
ATOM     17 H    PHE P  10      78.663   1.516  60.875  1.00 49.02 LIG 0.16  HD
BRANCH 16 18
ATOM     18  CA  PHE P  10      76.709   1.731  61.079  1.00 50.33 LIG 0.19  C 
BRANCH 18 19
ATOM     19  C   PHE P  10      76.960   2.685  62.240  1.00 49.91 LIG 0.20  C 
ATOM     20 O    PHE P  10      76.076   3.458  62.615  1.00 45.93 LIG-0.65  OA
ATOM     21 OXT  PHE P  10      78.049   2.708  62.817  1.00 46.36 LIG-0.65  OA
ENDBRANCH 18 19
BRANCH 18 22
ATOM     22  CB  PHE P  10      75.944   0.494  61.558  1.00 51.88 LIG 0.07  C 
BRANCH 22 23
ATOM     23  CG  PHE P  10      76.559  -0.192  62.749  1.00 51.17 LIG-0.06  A 
ATOM     24  CD1 PHE P  10      77.288  -1.359  62.593  1.00 49.53 LIG 0.01  A 
ATOM     25  CE1 PHE P  10      77.840  -1.998  63.685  1.00 54.45 LIG 0.00  A 
ATOM     26  CZ  PHE P  10      77.653  -1.484  64.953  1.00 54.40 LIG 0.00  A 
ATOM     27  CE2 PHE P  10      76.924  -0.327  65.124  1.00 52.97 LIG 0.00  A 
ATOM     28  CD2 PHE P  10      76.373   0.310  64.027  1.00 50.02 LIG 0.01  A 
ENDBRANCH 22 23
ENDBRANCH 18 22
ENDBRANCH 16 18
ENDBRANCH 6 14
ENDBRANCH 3 6
ENDBRANCH 1 2
BRANCH 1 29
ATOM     29  CB  TYR P   8      80.009  -3.388  60.123  1.00 54.61 LIG 0.07  C 
BRANCH 29 30
ATOM     30  CG  TYR P   8      80.392  -2.861  61.485  1.00 66.64 LIG-0.06  A 
ATOM     31  CD1 TYR P   8      80.686  -3.731  62.527  1.00 68.29 LIG 0.01  A 
ATOM     32  CE1 TYR P   8      81.030  -3.256  63.775  1.00 71.89 LIG 0.04  A 
ATOM     33  CZ  TYR P   8      81.080  -1.895  63.995  1.00 71.50 LIG 0.07  A 
ATOM     34  CE2 TYR P   8      80.788  -1.012  62.977  1.00 69.11 LIG 0.04  A 
ATOM     35  CD2 TYR P   8      80.443  -1.497  61.733  1.00 65.21 LIG 0.01  A 
BRANCH 33 36
ATOM     36 OH   TYR P   8      81.423  -1.417  65.238  1.00 83.55 LIG-0.36  OA
ATOM     37 HH   TYR P   8      80.753  -1.056  65.594  1.00 83.55 LIG 0.22  HD
ENDBRANCH 33 36
ENDBRANCH 29 30
ENDBRANCH 1 29
BRANCH 1 38
ATOM     38  N   TYR P   8      82.305  -3.251  59.243  1.00 59.31 LIG-0.35  N 
ATOM     39  C   VAL P   7      83.034  -4.003  58.423  1.00 65.10 LIG 0.24  C 
ATOM     40 O    VAL P   7      82.570  -4.539  57.408  1.00 66.40 LIG-0.27  OA
ATOM     41 H    TYR P   8      82.611  -2.917  59.974  1.00 59.31 LIG 0.16  HD
BRANCH 39 42
ATOM     42  CA  VAL P   7      84.499  -4.183  58.797  1.00 68.90 LIG 0.18  C 
BRANCH 42 43
ATOM     43  N   VAL P   7      85.059  -2.885  59.150  1.00 69.26 LIG-0.34  N 
ATOM     44  C   LEU P   6      86.293  -2.517  58.820  1.00 74.59 LIG 0.26  C 
ATOM     45 O    LEU P   6      87.046  -3.232  58.154  1.00 73.78 LIG-0.27  OA
ATOM     46 H    VAL P   7      84.518  -2.381  59.589  1.00 69.26 LIG 0.16  HD
BRANCH 44 47
ATOM     47  CA  LEU P   6      86.721  -1.128  59.302  1.00 78.06 LIG 0.40  C 
ATOM     48  N   LEU P   6      87.816  -0.617  58.486  1.00 74.40 LIG 0.61  N 
BRANCH 47 49
ATOM     49  CB  LEU P   6      85.542  -0.146  59.289  1.00 78.52 LIG 0.06  C 
BRANCH 49 50
ATOM     50  CG  LEU P   6      85.477   0.997  58.271  1.00 77.43 LIG-0.02  C 
ATOM     51  CD2 LEU P   6      85.927   2.326  58.865  1.00 73.93 LIG 0.01  C 
ATOM     52  CD1 LEU P   6      84.062   1.080  57.740  1.00 75.78 LIG 0.01  C 
ENDBRANCH 49 50
ENDBRANCH 47 49
ENDBRANCH 44 47
ENDBRANCH 42 43
BRANCH 42 53
ATOM     53  CB  VAL P   7      84.657  -5.186  59.952  1.00 67.45 LIG 0.01  C 
ATOM     54  CG2 VAL P   7      85.725  -6.212  59.615  1.00 67.18 LIG 0.01  C 
ATOM     55  CG1 VAL P   7      83.337  -5.874  60.241  1.00 63.58 LIG 0.01  C 
ENDBRANCH 42 53
ENDBRANCH 39 42
ENDBRANCH 1 38
TORSDOF 20
ENDMDL
MODEL 4
USER: ADFR SOLUTION from run 151
USER: SCORE 18.573415 LL:  -4.505 LR: -16.106 RR:   0.000 FEB: -10.140
USER: RMSD 3.166703
USER: SEED 150
USER: STATUS no improvement in best in 12 clusters for 5 generations
USER: GENES 22
USER: genes 0 Translation |==|  0.44596 0.50402 0.42217
USER: genes 1 Rotation |==|  0.50484 0.51763 0.52058 0.99924
USER: genes 2 Torsion [N]-CA--C-[N] |==|  0.37302
USER: genes 3 Torsion [C]-N--CA-[CB] |==|  0.39829
USER: genes 4 Torsion [N]-CA--CB-[CG] |==|  0.51988
USER: genes 5 Torsion [CA]-CB--CG-[CD] |==|  0.16315
USER: genes 6 Torsion [CB]-CG--CD-[OE1] |==|  0.02545
USER: genes 7 Torsion [N]-CA--C-[N] |==|  0.32001
USER: genes 8 Torsion [C]-N--CA-[C] |==|  0.71907
USER: genes 9 Torsion [N]-CA--C-[O] |==|  0.45227
USER: genes 10 Torsion [N]-CA--CB-[CG] |==|  0.85479
USER: genes 11 Torsion [CA]-CB--CG-[CD1] |==|  0.69476
USER: genes 12 Torsion [C]-CA--CB-[CG] |==|  0.37196
USER: genes 13 Torsion [CA]-CB--CG-[CD1] |==|  0.51683
USER: genes 14 Torsion [CE1]-CZ--OH-[HH] |==|  0.38736
USER: genes 15 Torsion [C]-CA--N-[C] |==|  0.76094
USER: genes 16 Torsion [N]-C--CA-[N] |==|  0.49305
USER: genes 17 Torsion [C]-CA--N-[C] |==|  0.57991
USER: genes 18 Torsion [N]-C--CA-[N] |==|  0.98229
USER: genes 19 Torsion [C]-CA--CB-[CG] |==|  0.94449
USER: genes 20 Torsion [CA]-CB--CG-[CD2] |==|  0.73499
USER: genes 21 Torsion [C]-CA--CB-[CG2] |==|  0.74829
ROOT
ATOM      1  CA  TYR P   8      81.333  -2.077  59.339  1.00 57.99 LIG 0.18  C 
ENDROOT
BRANCH 1 2
ATOM      2  C   TYR P   8      80.832  -0.698  59.742  1.00 56.68 LIG 0.24  C 
ATOM      3  N   GLN P   9      79.793  -0.222  59.064  1.00 57.67 LIG-0.35  N 
ATOM      4 H    GLN P   9      79.440  -0.622  58.388  1.00 57.67 LIG 0.16  HD
ATOM      5 O    TYR P   8      81.383  -0.078  60.658  1.00 54.26 LIG-0.27  OA
BRANCH 3 6
ATOM      6  CA  GLN P   9      79.154   1.039  59.415  1.00 54.86 LIG 0.18  C 
BRANCH 6 7
ATOM      7  CB  GLN P   9      78.701   1.791  58.166  1.00 52.41 LIG 0.04  C 
BRANCH 7 8
ATOM      8  CG  GLN P   9      78.182   3.190  58.447  1.00 53.63 LIG 0.10  C 
BRANCH 8 9
ATOM      9  CD  GLN P   9      79.217   4.060  59.125  1.00 56.56 LIG 0.21  C 
ATOM     10 OE1  GLN P   9      80.381   3.678  59.239  1.00 59.67 LIG-0.27  OA
ATOM     11  NE2 GLN P   9      78.799   5.237  59.580  1.00 58.55 LIG-0.37  N 
ATOM     12 22HE GLN P   9      79.351   5.767  59.974  1.00 58.55 LIG 0.16  HD
ATOM     13 21HE GLN P   9      77.977   5.469  59.482  1.00 58.55 LIG 0.16  HD
ENDBRANCH 8 9
ENDBRANCH 7 8
ENDBRANCH 6 7
BRANCH 6 14
ATOM     14  C   GLN P   9      77.969   0.753  60.329  1.00 54.72 LIG 0.24  C 
ATOM     15 O    GLN P   9      77.002   0.104  59.914  1.00 59.60 LIG-0.27  OA
ATOM     16  N   PHE P  10      78.049   1.223  61.568  1.00 49.02 LIG-0.34  N 
ATOM     17 H    PHE P  10      78.734   1.633  61.889  1.00 49.02 LIG 0.16  HD
BRANCH 16 18
ATOM     18  CA  PHE P  10      76.941   1.069  62.501  1.00 50.33 LIG 0.19  C 
BRANCH 18 19
ATOM     19  C   PHE P  10      76.132   2.355  62.626  1.00 49.91 LIG 0.20  C 
ATOM     20 O    PHE P  10      74.998   2.333  63.108  1.00 45.93 LIG-0.65  OA
ATOM     21 OXT  PHE P  10      76.590   3.432  62.240  1.00 46.36 LIG-0.65  OA
ENDBRANCH 18 19
BRANCH 18 22
ATOM     22  CB  PHE P  10      77.445   0.619  63.875  1.00 51.88 LIG 0.07  C 
BRANCH 22 23
ATOM     23  CG  PHE P  10      78.329  -0.600  63.842  1.00 51.17 LIG-0.06  A 
ATOM     24  CD1 PHE P  10      77.881  -1.810  64.346  1.00 49.53 LIG 0.01  A 
ATOM     25  CE1 PHE P  10      78.695  -2.925  64.331  1.00 54.45 LIG 0.00  A 
ATOM     26  CZ  PHE P  10      79.977  -2.838  63.825  1.00 54.40 LIG 0.00  A 
ATOM     27  CE2 PHE P  10      80.438  -1.639  63.327  1.00 52.97 LIG 0.00  A 
ATOM     28  CD2 PHE P  10      79.620  -0.524  63.344  1.00 50.02 LIG 0.01  A 
ENDBRANCH 22 23
ENDBRANCH 18 22
ENDBRANCH 16 18
ENDBRANCH 6 14
ENDBRANCH 3 6
ENDBRANCH 1 2
BRANCH 1 29
ATOM     29  CB  TYR P   8      80.878  -3.118  60.360  1.00 54.61 LIG 0.07  C 
BRANCH 29 30
ATOM     30  CG  TYR P   8      80.300  -4.377  59.760  1.00 66.64 LIG-0.06  A 
ATOM     31  CD1 TYR P   8      79.732  -5.355  60.567  1.00 68.29 LIG 0.01  A 
ATOM     32  CE1 TYR P   8      79.207  -6.509  60.025  1.00 71.89 LIG 0.04  A 
ATOM     33  CZ  TYR P   8      79.251  -6.700  58.659  1.00 71.50 LIG 0.07  A 
ATOM     34  CE2 TYR P   8      79.813  -5.747  57.838  1.00 69.11 LIG 0.04  A 
ATOM     35  CD2 TYR P   8      80.336  -4.596  58.389  1.00 65.21 LIG 0.01  A 
BRANCH 33 36
ATOM     36 OH   TYR P   8      78.729  -7.850  58.115  1.00 83.55 LIG-0.36  OA
ATOM     37 HH   TYR P   8      78.317  -7.663  57.408  1.00 83.55 LIG 0.22  HD
ENDBRANCH 33 36
ENDBRANCH 29 30
ENDBRANCH 1 29
BRANCH 1 38
ATOM     38  N   TYR P   8      82.785  -2.036  59.240  1.00 59.31 LIG-0.35  N 
ATOM     39  C   VAL P   7      83.424  -1.657  58.136  1.00 65.10 LIG 0.24  C 
ATOM     40 O    VAL P   7      82.839  -1.376  57.082  1.00 66.40 LIG-0.27  OA
ATOM     41 H    TYR P   8      83.190  -2.279  59.959  1.00 59.31 LIG 0.16  HD
BRANCH 39 42
ATOM     42  CA  VAL P   7      84.942  -1.586  58.226  1.00 68.90 LIG 0.18  C 
BRANCH 42 43
ATOM     43  N   VAL P   7      85.474  -1.215  56.921  1.00 69.26 LIG-0.34  N 
ATOM     44  C   LEU P   6      86.679  -1.588  56.501  1.00 74.59 LIG 0.26  C 
ATOM     45 O    LEU P   6      87.424  -2.310  57.168  1.00 73.78 LIG-0.27  OA
ATOM     46 H    VAL P   7      84.938  -0.736  56.451  1.00 69.26 LIG 0.16  HD
BRANCH 44 47
ATOM     47  CA  LEU P   6      87.083  -1.080  55.114  1.00 78.06 LIG 0.40  C 
ATOM     48  N   LEU P   6      85.966  -0.397  54.473  1.00 74.40 LIG 0.61  N 
BRANCH 47 49
ATOM     49  CB  LEU P   6      88.302  -0.152  55.193  1.00 78.52 LIG 0.06  C 
BRANCH 49 50
ATOM     50  CG  LEU P   6      88.691   0.530  56.508  1.00 77.43 LIG-0.02  C 
ATOM     51  CD2 LEU P   6      88.127   1.942  56.615  1.00 73.93 LIG 0.01  C 
ATOM     52  CD1 LEU P   6      90.201   0.528  56.615  1.00 75.78 LIG 0.01  C 
ENDBRANCH 49 50
ENDBRANCH 47 49
ENDBRANCH 44 47
ENDBRANCH 42 43
BRANCH 42 53
ATOM     53  CB  VAL P   7      85.387  -0.589  59.309  1.00 67.45 LIG 0.01  C 
ATOM     54  CG2 VAL P   7      85.562   0.795  58.709  1.00 67.18 LIG 0.01  C 
ATOM     55  CG1 VAL P   7      86.678  -1.051  59.956  1.00 63.58 LIG 0.01  C 
ENDBRANCH 42 53
ENDBRANCH 39 42
ENDBRANCH 1 38
TORSDOF 20
ENDMDL
MODEL 5
USER: ADFR SOLUTION from run 69
USER: SCORE 19.096448 LL:  -4.790 LR: -16.091 RR:   0.000 FEB: -10.125
USER: RMSD 3.763798
USER: SEED 68
USER: STATUS no improvement in best in 12 clusters for 5 generations
USER: GENES 22
USER: genes 0 Translation |==|  0.46777 0.45146 0.42655
USER: genes 1 Rotation |==|  0.49237 0.53223 0.48337 0.99862
USER: genes 2 Torsion [N]-CA--C-[N] |==|  0.48838
USER: genes 3 Torsion [C]-N--CA-[CB] |==|  0.23613
USER: genes 4 Torsion [N]-CA--CB-[CG] |==|  0.38540
USER: genes 5 Torsion [CA]-CB--CG-[CD] |==|  0.69347
USER: genes 6 Torsion [CB]-CG--CD-[OE1] |==|  0.21112
USER: genes 7 Torsion [N]-CA--C-[N] |==|  0.40653
USER: genes 8 Torsion [C]-N--CA-[C] |==|  0.63291
USER: genes 9 Torsion [N]-CA--C-[O] |==|  0.95719
USER: genes 10 Torsion [N]-CA--CB-[CG] |==|  0.93106
USER: genes 11 Torsion [CA]-CB--CG-[CD1] |==|  0.82150
USER: genes 12 Torsion [C]-CA--CB-[CG] |==|  0.32901
USER: genes 13 Torsion [CA]-CB--CG-[CD1] |==|  0.54409
USER: genes 14 Torsion [CE1]-CZ--OH-[HH] |==|  0.41410
USER: genes 15 Torsion [C]-CA--N-[C] |==|  0.61480
USER: genes 16 Torsion [N]-C--CA-[N] |==|  0.90991
USER: genes 17 Torsion [C]-CA--N-[C] |==|  0.60556
USER: genes 18 Torsion [N]-C--CA-[N] |==|  0.56165
USER: genes 19 Torsion [C]-CA--CB-[CG] |==|  0.72375
USER: genes 20 Torsion [CA]-CB--CG-[CD2] |==|  0.68997
USER: genes 21 Torsion [C]-CA--CB-[CG2] |==|  0.34164
ROOT
ATOM      1  CA  TYR P   8      81.824  -3.259  59.418  1.00 57.99 LIG 0.18  C 
ENDROOT
BRANCH 1 2
ATOM      2  C   TYR P   8      81.552  -1.802  59.762  1.00 56.68 LIG 0.24  C 
ATOM      3  N   GLN P   9      80.276  -1.447  59.874  1.00 57.67 LIG-0.35  N 
ATOM      4 H    GLN P   9      79.617  -1.974  59.708  1.00 57.67 LIG 0.16  HD
ATOM      5 O    TYR P   8      82.491  -1.015  59.923  1.00 54.26 LIG-0.27  OA
BRANCH 3 6
ATOM      6  CA  GLN P   9      79.882  -0.110  60.297  1.00 54.86 LIG 0.18  C 
BRANCH 6 7
ATOM      7  CB  GLN P   9      79.853   0.854  59.113  1.00 52.41 LIG 0.04  C 
BRANCH 7 8
ATOM      8  CG  GLN P   9      78.668   1.803  59.124  1.00 53.63 LIG 0.10  C 
BRANCH 8 9
ATOM      9  CD  GLN P   9      77.676   1.495  58.025  1.00 56.56 LIG 0.21  C 
ATOM     10 OE1  GLN P   9      76.909   0.538  58.121  1.00 59.67 LIG-0.27  OA
ATOM     11  NE2 GLN P   9      77.685   2.304  56.971  1.00 58.55 LIG-0.37  N 
ATOM     12 22HE GLN P   9      77.140   2.169  56.319  1.00 58.55 LIG 0.16  HD
ATOM     13 21HE GLN P   9      78.237   2.963  56.939  1.00 58.55 LIG 0.16  HD
ENDBRANCH 8 9
ENDBRANCH 7 8
ENDBRANCH 6 7
BRANCH 6 14
ATOM     14  C   GLN P   9      78.514  -0.187  60.961  1.00 54.72 LIG 0.24  C 
ATOM     15 O    GLN P   9      77.678  -1.013  60.578  1.00 59.60 LIG-0.27  OA
ATOM     16  N   PHE P  10      78.290   0.661  61.959  1.00 49.02 LIG-0.34  N 
ATOM     17 H    PHE P  10      78.876   1.208  62.272  1.00 49.02 LIG 0.16  HD
BRANCH 16 18
ATOM     18  CA  PHE P  10      76.991   0.721  62.614  1.00 50.33 LIG 0.19  C 
BRANCH 18 19
ATOM     19  C   PHE P  10      76.501   2.157  62.754  1.00 49.91 LIG 0.20  C 
ATOM     20 O    PHE P  10      77.281   3.100  62.604  1.00 45.93 LIG-0.65  OA
ATOM     21 OXT  PHE P  10      75.324   2.401  63.028  1.00 46.36 LIG-0.65  OA
ENDBRANCH 18 19
BRANCH 18 22
ATOM     22  CB  PHE P  10      77.040   0.037  63.984  1.00 51.88 LIG 0.07  C 
BRANCH 22 23
ATOM     23  CG  PHE P  10      78.117  -1.007  64.117  1.00 51.17 LIG-0.06  A 
ATOM     24  CD1 PHE P  10      78.087  -2.154  63.343  1.00 49.53 LIG 0.01  A 
ATOM     25  CE1 PHE P  10      79.065  -3.120  63.473  1.00 54.45 LIG 0.00  A 
ATOM     26  CZ  PHE P  10      80.079  -2.955  64.397  1.00 54.40 LIG 0.00  A 
ATOM     27  CE2 PHE P  10      80.117  -1.821  65.179  1.00 52.97 LIG 0.00  A 
ATOM     28  CD2 PHE P  10      79.136  -0.857  65.044  1.00 50.02 LIG 0.01  A 
ENDBRANCH 22 23
ENDBRANCH 18 22
ENDBRANCH 16 18
ENDBRANCH 6 14
ENDBRANCH 3 6
ENDBRANCH 1 2
BRANCH 1 29
ATOM     29  CB  TYR P   8      81.287  -4.167  60.524  1.00 54.61 LIG 0.07  C 
BRANCH 29 30
ATOM     30  CG  TYR P   8      80.211  -5.129  60.081  1.00 66.64 LIG-0.06  A 
ATOM     31  CD1 TYR P   8      79.408  -5.775  61.012  1.00 68.29 LIG 0.01  A 
ATOM     32  CE1 TYR P   8      78.427  -6.659  60.615  1.00 71.89 LIG 0.04  A 
ATOM     33  CZ  TYR P   8      78.243  -6.911  59.271  1.00 71.50 LIG 0.07  A 
ATOM     34  CE2 TYR P   8      79.030  -6.286  58.328  1.00 69.11 LIG 0.04  A 
ATOM     35  CD2 TYR P   8      80.009  -5.404  58.736  1.00 65.21 LIG 0.01  A 
BRANCH 33 36
ATOM     36 OH   TYR P   8      77.266  -7.793  58.871  1.00 83.55 LIG-0.36  OA
ATOM     37 HH   TYR P   8      76.971  -7.561  58.119  1.00 83.55 LIG 0.22  HD
ENDBRANCH 33 36
ENDBRANCH 29 30
ENDBRANCH 1 29
BRANCH 1 38
ATOM     38  N   TYR P   8      83.258  -3.438  59.239  1.00 59.31 LIG-0.35  N 
ATOM     39  C   VAL P   7      83.777  -4.184  58.268  1.00 65.10 LIG 0.24  C 
ATOM     40 O    VAL P   7      83.085  -4.842  57.480  1.00 66.40 LIG-0.27  OA
ATOM     41 H    TYR P   8      83.735  -3.018  59.819  1.00 59.31 LIG 0.16  HD
BRANCH 39 42
ATOM     42  CA  VAL P   7      85.296  -4.196  58.166  1.00 68.90 LIG 0.18  C 
BRANCH 42 43
ATOM     43  N   VAL P   7      85.808  -2.898  58.585  1.00 69.26 LIG-0.34  N 
ATOM     44  C   LEU P   6      86.842  -2.305  57.996  1.00 74.59 LIG 0.26  C 
ATOM     45 O    LEU P   6      87.423  -2.792  57.022  1.00 73.78 LIG-0.27  OA
ATOM     46 H    VAL P   7      85.379  -2.553  59.246  1.00 69.26 LIG 0.16  HD
BRANCH 44 47
ATOM     47  CA  LEU P   6      87.258  -0.957  58.590  1.00 78.06 LIG 0.40  C 
ATOM     48  N   LEU P   6      88.001  -0.173  57.611  1.00 74.40 LIG 0.61  N 
BRANCH 47 49
ATOM     49  CB  LEU P   6      86.042  -0.170  59.094  1.00 78.52 LIG 0.06  C 
BRANCH 49 50
ATOM     50  CG  LEU P   6      85.421   0.948  58.251  1.00 77.43 LIG-0.02  C 
ATOM     51  CD2 LEU P   6      85.631   2.324  58.871  1.00 73.93 LIG 0.01  C 
ATOM     52  CD1 LEU P   6      83.949   0.643  58.069  1.00 75.78 LIG 0.01  C 
ENDBRANCH 49 50
ENDBRANCH 47 49
ENDBRANCH 44 47
ENDBRANCH 42 43
BRANCH 42 53
ATOM     53  CB  VAL P   7      85.899  -5.329  59.014  1.00 67.45 LIG 0.01  C 
ATOM     54  CG2 VAL P   7      86.748  -6.241  58.147  1.00 67.18 LIG 0.01  C 
ATOM     55  CG1 VAL P   7      84.802  -6.121  59.697  1.00 63.58 LIG 0.01  C 
ENDBRANCH 42 53
ENDBRANCH 39 42
ENDBRANCH 1 38
TORSDOF 20
ENDMDL
MODEL 6
USER: ADFR SOLUTION from run 197
USER: SCORE 18.440537 LL:  -5.121 LR: -15.975 RR:   0.000 FEB: -10.009
USER: RMSD 3.943002
USER: SEED 196
USER: STATUS no improvement in best in 14 clusters for 5 generations
USER: GENES 22
USER: genes 0 Translation |==|  0.43769 0.48268 0.39909
USER: genes 1 Rotation |==|  0.52932 0.46773 0.44788 0.99536
USER: genes 2 Torsion [N]-CA--C-[N] |==|  0.40043
USER: genes 3 Torsion [C]-N--CA-[CB] |==|  0.33834
USER: genes 4 Torsion [N]-CA--CB-[CG] |==|  0.40536
USER: genes 5 Torsion [CA]-CB--CG-[CD] |==|  0.23005
USER: genes 6 Torsion [CB]-CG--CD-[OE1] |==|  0.02302
USER: genes 7 Torsion [N]-CA--C-[N] |==|  0.32948
USER: genes 8 Torsion [C]-N--CA-[C] |==|  0.59972
USER: genes 9 Torsion [N]-CA--C-[O] |==|  0.47680
USER: genes 10 Torsion [N]-CA--CB-[CG] |==|  0.20351
USER: genes 11 Torsion [CA]-CB--CG-[CD1] |==|  0.93822
USER: genes 12 Torsion [C]-CA--CB-[CG] |==|  0.87373
USER: genes 13 Torsion [CA]-CB--CG-[CD1] |==|  0.32405
USER: genes 14 Torsion [CE1]-CZ--OH-[HH] |==|  0.55602
USER: genes 15 Torsion [C]-CA--N-[C] |==|  0.55210
USER: genes 16 Torsion [N]-C--CA-[N] |==|  0.93892
USER: genes 17 Torsion [C]-CA--N-[C] |==|  0.59582
USER: genes 18 Torsion [N]-C--CA-[N] |==|  0.56869
USER: genes 19 Torsion [C]-CA--CB-[CG] |==|  0.76102
USER: genes 20 Torsion [CA]-CB--CG-[CD2] |==|  0.70083
USER: genes 21 Torsion [C]-CA--CB-[CG2] |==|  0.29123
ROOT
ATOM      1  CA  TYR P   8      81.147  -2.557  58.924  1.00 57.99 LIG 0.18  C 
ENDROOT
BRANCH 1 2
ATOM      2  C   TYR P   8      80.983  -1.120  59.399  1.00 56.68 LIG 0.24  C 
ATOM      3  N   GLN P   9      80.118  -0.368  58.726  1.00 57.67 LIG-0.35  N 
ATOM      4 H    GLN P   9      79.704  -0.631  58.019  1.00 57.67 LIG 0.16  HD
ATOM      5 O    TYR P   8      81.633  -0.706  60.365  1.00 54.26 LIG-0.27  OA
BRANCH 3 6
ATOM      6  CA  GLN P   9      79.793   0.990  59.139  1.00 54.86 LIG 0.18  C 
BRANCH 6 7
ATOM      7  CB  GLN P   9      80.102   1.991  58.028  1.00 52.41 LIG 0.04  C 
BRANCH 7 8
ATOM      8  CG  GLN P   9      79.141   3.165  57.974  1.00 53.63 LIG 0.10  C 
BRANCH 8 9
ATOM      9  CD  GLN P   9      79.509   4.253  58.958  1.00 56.56 LIG 0.21  C 
ATOM     10 OE1  GLN P   9      80.570   4.205  59.579  1.00 59.67 LIG-0.27  OA
ATOM     11  NE2 GLN P   9      78.635   5.242  59.106  1.00 58.55 LIG-0.37  N 
ATOM     12 22HE GLN P   9      78.800   5.884  59.654  1.00 58.55 LIG 0.16  HD
ATOM     13 21HE GLN P   9      77.904   5.241  58.654  1.00 58.55 LIG 0.16  HD
ENDBRANCH 8 9
ENDBRANCH 7 8
ENDBRANCH 6 7
BRANCH 6 14
ATOM     14  C   GLN P   9      78.320   1.050  59.521  1.00 54.72 LIG 0.24  C 
ATOM     15 O    GLN P   9      77.447   0.783  58.687  1.00 59.60 LIG-0.27  OA
ATOM     16  N   PHE P  10      78.045   1.386  60.776  1.00 49.02 LIG-0.34  N 
ATOM     17 H    PHE P  10      78.639   1.527  61.382  1.00 49.02 LIG 0.16  HD
BRANCH 16 18
ATOM     18  CA  PHE P  10      76.669   1.544  61.226  1.00 50.33 LIG 0.19  C 
BRANCH 18 19
ATOM     19  C   PHE P  10      76.538   2.672  62.242  1.00 49.91 LIG 0.20  C 
ATOM     20 O    PHE P  10      75.425   3.049  62.615  1.00 45.93 LIG-0.65  OA
ATOM     21 OXT  PHE P  10      77.536   3.233  62.699  1.00 46.36 LIG-0.65  OA
ENDBRANCH 18 19
BRANCH 18 22
ATOM     22  CB  PHE P  10      76.134   0.233  61.810  1.00 51.88 LIG 0.07  C 
BRANCH 22 23
ATOM     23  CG  PHE P  10      76.694  -0.117  63.163  1.00 51.17 LIG-0.06  A 
ATOM     24  CD1 PHE P  10      77.901   0.414  63.586  1.00 49.53 LIG 0.01  A 
ATOM     25  CE1 PHE P  10      78.424   0.083  64.821  1.00 54.45 LIG 0.00  A 
ATOM     26  CZ  PHE P  10      77.750  -0.799  65.642  1.00 54.40 LIG 0.00  A 
ATOM     27  CE2 PHE P  10      76.551  -1.340  65.231  1.00 52.97 LIG 0.00  A 
ATOM     28  CD2 PHE P  10      76.031  -1.006  63.994  1.00 50.02 LIG 0.01  A 
ENDBRANCH 22 23
ENDBRANCH 18 22
ENDBRANCH 16 18
ENDBRANCH 6 14
ENDBRANCH 3 6
ENDBRANCH 1 2
BRANCH 1 29
ATOM     29  CB  TYR P   8      80.220  -3.479  59.714  1.00 54.61 LIG 0.07  C 
BRANCH 29 30
ATOM     30  CG  TYR P   8      80.220  -3.243  61.205  1.00 66.64 LIG-0.06  A 
ATOM     31  CD1 TYR P   8      79.068  -2.823  61.859  1.00 68.29 LIG 0.01  A 
ATOM     32  CE1 TYR P   8      79.063  -2.601  63.220  1.00 71.89 LIG 0.04  A 
ATOM     33  CZ  TYR P   8      80.221  -2.793  63.945  1.00 71.50 LIG 0.07  A 
ATOM     34  CE2 TYR P   8      81.377  -3.205  63.318  1.00 69.11 LIG 0.04  A 
ATOM     35  CD2 TYR P   8      81.373  -3.424  61.957  1.00 65.21 LIG 0.01  A 
BRANCH 33 36
ATOM     36 OH   TYR P   8      80.220  -2.572  65.302  1.00 83.55 LIG-0.36  OA
ATOM     37 HH   TYR P   8      81.008  -2.453  65.567  1.00 83.55 LIG 0.22  HD
ENDBRANCH 33 36
ENDBRANCH 29 30
ENDBRANCH 1 29
BRANCH 1 38
ATOM     38  N   TYR P   8      82.541  -2.946  59.085  1.00 59.31 LIG-0.35  N 
ATOM     39  C   VAL P   7      83.081  -3.979  58.445  1.00 65.10 LIG 0.24  C 
ATOM     40 O    VAL P   7      82.428  -4.736  57.715  1.00 66.40 LIG-0.27  OA
ATOM     41 H    TYR P   8      82.980  -2.447  59.632  1.00 59.31 LIG 0.16  HD
BRANCH 39 42
ATOM     42  CA  VAL P   7      84.572  -4.199  58.657  1.00 68.90 LIG 0.18  C 
BRANCH 42 43
ATOM     43  N   VAL P   7      85.177  -2.947  59.093  1.00 69.26 LIG-0.34  N 
ATOM     44  C   LEU P   6      86.407  -2.581  58.747  1.00 74.59 LIG 0.26  C 
ATOM     45 O    LEU P   6      87.118  -3.256  57.998  1.00 73.78 LIG-0.27  OA
ATOM     46 H    VAL P   7      84.664  -2.470  59.592  1.00 69.26 LIG 0.16  HD
BRANCH 44 47
ATOM     47  CA  LEU P   6      86.886  -1.246  59.324  1.00 78.06 LIG 0.40  C 
ATOM     48  N   LEU P   6      87.924  -0.666  58.479  1.00 74.40 LIG 0.61  N 
BRANCH 47 49
ATOM     49  CB  LEU P   6      85.722  -0.261  59.492  1.00 78.52 LIG 0.06  C 
BRANCH 49 50
ATOM     50  CG  LEU P   6      85.271   0.633  58.332  1.00 77.43 LIG-0.02  C 
ATOM     51  CD2 LEU P   6      85.659   2.092  58.544  1.00 73.93 LIG 0.01  C 
ATOM     52  CD1 LEU P   6      83.774   0.478  58.168  1.00 75.78 LIG 0.01  C 
ENDBRANCH 49 50
ENDBRANCH 47 49
ENDBRANCH 44 47
ENDBRANCH 42 43
BRANCH 42 53
ATOM     53  CB  VAL P   7      84.827  -5.322  59.678  1.00 67.45 LIG 0.01  C 
ATOM     54  CG2 VAL P   7      85.283  -6.584  58.969  1.00 67.18 LIG 0.01  C 
ATOM     55  CG1 VAL P   7      83.577  -5.594  60.490  1.00 63.58 LIG 0.01  C 
ENDBRANCH 42 53
ENDBRANCH 39 42
ENDBRANCH 1 38
TORSDOF 20
ENDMDL
MODEL 7
USER: ADFR SOLUTION from run 49
USER: SCORE 18.278780 LL:  -4.881 LR: -15.887 RR:   0.000 FEB:  -9.921
USER: RMSD 4.316776
USER: SEED 48
USER: STATUS no improvement in best in 11 clusters for 5 generations
USER: GENES 22
USER: genes 0 Translation |==|  0.44118 0.51453 0.42643
USER: genes 1 Rotation |==|  0.43311 0.53267 0.53772 0.99299
USER: genes 2 Torsion [N]-CA--C-[N] |==|  0.31535
USER: genes 3 Torsion [C]-N--CA-[CB] |==|  0.42451
USER: genes 4 Torsion [N]-CA--CB-[CG] |==|  0.02152
USER: genes 5 Torsion [CA]-CB--CG-[CD] |==|  0.24734
USER: genes 6 Torsion [CB]-CG--CD-[OE1] |==|  0.00311
USER: genes 7 Torsion [N]-CA--C-[N] |==|  0.25508
USER: genes 8 Torsion [C]-N--CA-[C] |==|  0.57710
USER: genes 9 Torsion [N]-CA--C-[O] |==|  0.43786
USER: genes 10 Torsion [N]-CA--CB-[CG] |==|  0.20025
USER: genes 11 Torsion [CA]-CB--CG-[CD1] |==|  0.81298
USER: genes 12 Torsion [C]-CA--CB-[CG] |==|  0.42332
USER: genes 13 Torsion [CA]-CB--CG-[CD1] |==|  0.67157
USER: genes 14 Torsion [CE1]-CZ--OH-[HH] |==|  0.56998
USER: genes 15 Torsion [C]-CA--N-[C] |==|  0.74208
USER: genes 16 Torsion [N]-C--CA-[N] |==|  0.76625
USER: genes 17 Torsion [C]-CA--N-[C] |==|  0.68134
USER: genes 18 Torsion [N]-C--CA-[N] |==|  0.58708
USER: genes 19 Torsion [C]-CA--CB-[CG] |==|  0.74749
USER: genes 20 Torsion [CA]-CB--CG-[CD2] |==|  0.59779
USER: genes 21 Torsion [C]-CA--CB-[CG2] |==|  0.59045
ROOT
ATOM      1  CA  TYR P   8      81.226  -1.840  59.416  1.00 57.99 LIG 0.18  C 
ENDROOT
BRANCH 1 2
ATOM      2  C   TYR P   8      80.622  -0.443  59.444  1.00 56.68 LIG 0.24  C 
ATOM      3  N   GLN P   9      79.814  -0.126  58.438  1.00 57.67 LIG-0.35  N 
ATOM      4 H    GLN P   9      79.669  -0.637  57.762  1.00 57.67 LIG 0.16  HD
ATOM      5 O    TYR P   8      80.889   0.331  60.370  1.00 54.26 LIG-0.27  OA
BRANCH 3 6
ATOM      6  CA  GLN P   9      79.095   1.140  58.397  1.00 54.86 LIG 0.18  C 
BRANCH 6 7
ATOM      7  CB  GLN P   9      78.805   1.561  56.958  1.00 52.41 LIG 0.04  C 
BRANCH 7 8
ATOM      8  CG  GLN P   9      79.154   0.502  55.927  1.00 53.63 LIG 0.10  C 
BRANCH 8 9
ATOM      9  CD  GLN P   9      78.003  -0.440  55.660  1.00 56.56 LIG 0.21  C 
ATOM     10 OE1  GLN P   9      76.924  -0.292  56.234  1.00 59.67 LIG-0.27  OA
ATOM     11  NE2 GLN P   9      78.223  -1.417  54.786  1.00 58.55 LIG-0.37  N 
ATOM     12 22HE GLN P   9      77.598  -1.978  54.602  1.00 58.55 LIG 0.16  HD
ATOM     13 21HE GLN P   9      78.990  -1.488  54.405  1.00 58.55 LIG 0.16  HD
ENDBRANCH 8 9
ENDBRANCH 7 8
ENDBRANCH 6 7
BRANCH 6 14
ATOM     14  C   GLN P   9      77.799   0.996  59.185  1.00 54.72 LIG 0.24  C 
ATOM     15 O    GLN P   9      76.775   0.578  58.633  1.00 59.60 LIG-0.27  OA
ATOM     16  N   PHE P  10      77.847   1.326  60.471  1.00 49.02 LIG-0.34  N 
ATOM     17 H    PHE P  10      78.561   1.571  60.883  1.00 49.02 LIG 0.16  HD
BRANCH 16 18
ATOM     18  CA  PHE P  10      76.648   1.295  61.297  1.00 50.33 LIG 0.19  C 
BRANCH 18 19
ATOM     19  C   PHE P  10      76.735   2.293  62.446  1.00 49.91 LIG 0.20  C 
ATOM     20 O    PHE P  10      75.709   2.708  62.990  1.00 45.93 LIG-0.65  OA
ATOM     21 OXT  PHE P  10      77.825   2.708  62.844  1.00 46.36 LIG-0.65  OA
ENDBRANCH 18 19
BRANCH 18 22
ATOM     22  CB  PHE P  10      76.393  -0.116  61.833  1.00 51.88 LIG 0.07  C 
BRANCH 22 23
ATOM     23  CG  PHE P  10      77.355  -0.557  62.904  1.00 51.17 LIG-0.06  A 
ATOM     24  CD1 PHE P  10      78.691  -0.772  62.608  1.00 49.53 LIG 0.01  A 
ATOM     25  CE1 PHE P  10      79.572  -1.189  63.585  1.00 54.45 LIG 0.00  A 
ATOM     26  CZ  PHE P  10      79.121  -1.415  64.871  1.00 54.40 LIG 0.00  A 
ATOM     27  CE2 PHE P  10      77.793  -1.212  65.178  1.00 52.97 LIG 0.00  A 
ATOM     28  CD2 PHE P  10      76.914  -0.793  64.196  1.00 50.02 LIG 0.01  A 
ENDBRANCH 22 23
ENDBRANCH 18 22
ENDBRANCH 16 18
ENDBRANCH 6 14
ENDBRANCH 3 6
ENDBRANCH 1 2
BRANCH 1 29
ATOM     29  CB  TYR P   8      80.899  -2.577  60.714  1.00 54.61 LIG 0.07  C 
BRANCH 29 30
ATOM     30  CG  TYR P   8      80.839  -4.080  60.585  1.00 66.64 LIG-0.06  A 
ATOM     31  CD1 TYR P   8      79.663  -4.771  60.850  1.00 68.29 LIG 0.01  A 
ATOM     32  CE1 TYR P   8      79.603  -6.144  60.740  1.00 71.89 LIG 0.04  A 
ATOM     33  CZ  TYR P   8      80.730  -6.846  60.365  1.00 71.50 LIG 0.07  A 
ATOM     34  CE2 TYR P   8      81.910  -6.184  60.101  1.00 69.11 LIG 0.04  A 
ATOM     35  CD2 TYR P   8      81.960  -4.811  60.215  1.00 65.21 LIG 0.01  A 
BRANCH 33 36
ATOM     36 OH   TYR P   8      80.674  -8.216  60.254  1.00 83.55 LIG-0.36  OA
ATOM     37 HH   TYR P   8      81.442  -8.537  60.364  1.00 83.55 LIG 0.22  HD
ENDBRANCH 33 36
ENDBRANCH 29 30
ENDBRANCH 1 29
BRANCH 1 38
ATOM     38  N   TYR P   8      82.664  -1.724  59.223  1.00 59.31 LIG-0.35  N 
ATOM     39  C   VAL P   7      83.238  -1.762  58.024  1.00 65.10 LIG 0.24  C 
ATOM     40 O    VAL P   7      82.605  -1.969  56.980  1.00 66.40 LIG-0.27  OA
ATOM     41 H    TYR P   8      83.106  -1.630  59.955  1.00 59.31 LIG 0.16  HD
BRANCH 39 42
ATOM     42  CA  VAL P   7      84.743  -1.539  57.988  1.00 68.90 LIG 0.18  C 
BRANCH 42 43
ATOM     43  N   VAL P   7      85.008  -0.106  57.977  1.00 69.26 LIG-0.34  N 
ATOM     44  C   LEU P   6      85.574   0.516  56.948  1.00 74.59 LIG 0.26  C 
ATOM     45 O    LEU P   6      85.884  -0.067  55.906  1.00 73.78 LIG-0.27  OA
ATOM     46 H    VAL P   7      84.763   0.297  58.696  1.00 69.26 LIG 0.16  HD
BRANCH 44 47
ATOM     47  CA  LEU P   6      85.801   2.019  57.126  1.00 78.06 LIG 0.40  C 
ATOM     48  N   LEU P   6      85.704   2.708  55.845  1.00 74.40 LIG 0.61  N 
BRANCH 47 49
ATOM     49  CB  LEU P   6      84.809   2.618  58.131  1.00 78.52 LIG 0.06  C 
BRANCH 49 50
ATOM     50  CG  LEU P   6      83.464   3.187  57.669  1.00 77.43 LIG-0.02  C 
ATOM     51  CD2 LEU P   6      83.038   4.400  58.489  1.00 73.93 LIG 0.01  C 
ATOM     52  CD1 LEU P   6      82.431   2.083  57.740  1.00 75.78 LIG 0.01  C 
ENDBRANCH 49 50
ENDBRANCH 47 49
ENDBRANCH 44 47
ENDBRANCH 42 43
BRANCH 42 53
ATOM     53  CB  VAL P   7      85.433  -2.220  59.183  1.00 67.45 LIG 0.01  C 
ATOM     54  CG2 VAL P   7      86.648  -1.419  59.615  1.00 67.18 LIG 0.01  C 
ATOM     55  CG1 VAL P   7      85.834  -3.637  58.827  1.00 63.58 LIG 0.01  C 
ENDBRANCH 42 53
ENDBRANCH 39 42
ENDBRANCH 1 38
TORSDOF 20
ENDMDL
MODEL 8
USER: ADFR SOLUTION from run 1
USER: SCORE 18.065396 LL:  -4.298 LR: -15.749 RR:   0.000 FEB:  -9.783
USER: RMSD 3.244554
USER: SEED 169918
USER: STATUS no improvement in best in 11 clusters for 5 generations
USER: GENES 22
USER: genes 0 Translation |==|  0.44196 0.50074 0.42030
USER: genes 1 Rotation |==|  0.43556 0.51347 0.51547 0.99541
USER: genes 2 Torsion [N]-CA--C-[N] |==|  0.34459
USER: genes 3 Torsion [C]-N--CA-[CB] |==|  0.40958
USER: genes 4 Torsion [N]-CA--CB-[CG] |==|  0.02775
USER: genes 5 Torsion [CA]-CB--CG-[CD] |==|  0.25606
USER: genes 6 Torsion [CB]-CG--CD-[OE1] |==|  0.98125
USER: genes 7 Torsion [N]-CA--C-[N] |==|  0.26807
USER: genes 8 Torsion [C]-N--CA-[C] |==|  0.56880
USER: genes 9 Torsion [N]-CA--C-[O] |==|  0.40684
USER: genes 10 Torsion [N]-CA--CB-[CG] |==|  0.19121
USER: genes 11 Torsion [CA]-CB--CG-[CD1] |==|  0.81053
USER: genes 12 Torsion [C]-CA--CB-[CG] |==|  0.45391
USER: genes 13 Torsion [CA]-CB--CG-[CD1] |==|  0.18276
USER: genes 14 Torsion [CE1]-CZ--OH-[HH] |==|  0.09393
USER: genes 15 Torsion [C]-CA--N-[C] |==|  0.80679
USER: genes 16 Torsion [N]-C--CA-[N] |==|  0.47959
USER: genes 17 Torsion [C]-CA--N-[C] |==|  0.57364
USER: genes 18 Torsion [N]-C--CA-[N] |==|  0.90610
USER: genes 19 Torsion [C]-CA--CB-[CG] |==|  0.03744
USER: genes 20 Torsion [CA]-CB--CG-[CD2] |==|  0.63354
USER: genes 21 Torsion [C]-CA--CB-[CG2] |==|  0.76528
ROOT
ATOM      1  CA  TYR P   8      81.243  -2.150  59.305  1.00 57.99 LIG 0.18  C 
ENDROOT
BRANCH 1 2
ATOM      2  C   TYR P   8      80.751  -0.710  59.301  1.00 56.68 LIG 0.24  C 
ATOM      3  N   GLN P   9      79.886  -0.382  58.347  1.00 57.67 LIG-0.35  N 
ATOM      4 H    GLN P   9      79.645  -0.915  57.716  1.00 57.67 LIG 0.16  HD
ATOM      5 O    TYR P   8      81.153   0.087  60.155  1.00 54.26 LIG-0.27  OA
BRANCH 3 6
ATOM      6  CA  GLN P   9      79.262   0.933  58.292  1.00 54.86 LIG 0.18  C 
BRANCH 6 7
ATOM      7  CB  GLN P   9      79.003   1.357  56.848  1.00 52.41 LIG 0.04  C 
BRANCH 7 8
ATOM      8  CG  GLN P   9      79.220   0.247  55.834  1.00 53.63 LIG 0.10  C 
BRANCH 8 9
ATOM      9  CD  GLN P   9      77.949  -0.518  55.541  1.00 56.56 LIG 0.21  C 
ATOM     10 OE1  GLN P   9      76.923  -0.302  56.186  1.00 59.67 LIG-0.27  OA
ATOM     11  NE2 GLN P   9      78.007  -1.417  54.564  1.00 58.55 LIG-0.37  N 
ATOM     12 22HE GLN P   9      77.310  -1.878  54.361  1.00 58.55 LIG 0.16  HD
ATOM     13 21HE GLN P   9      78.742  -1.539  54.136  1.00 58.55 LIG 0.16  HD
ENDBRANCH 8 9
ENDBRANCH 7 8
ENDBRANCH 6 7
BRANCH 6 14
ATOM     14  C   GLN P   9      77.960   0.895  59.082  1.00 54.72 LIG 0.24  C 
ATOM     15 O    GLN P   9      76.924   0.466  58.560  1.00 59.60 LIG-0.27  OA
ATOM     16  N   PHE P  10      78.014   1.327  60.336  1.00 49.02 LIG-0.34  N 
ATOM     17 H    PHE P  10      78.735   1.582  60.731  1.00 49.02 LIG 0.16  HD
BRANCH 16 18
ATOM     18  CA  PHE P  10      76.813   1.402  61.156  1.00 50.33 LIG 0.19  C 
BRANCH 18 19
ATOM     19  C   PHE P  10      76.956   2.436  62.267  1.00 49.91 LIG 0.20  C 
ATOM     20 O    PHE P  10      75.978   3.083  62.646  1.00 45.93 LIG-0.65  OA
ATOM     21 OXT  PHE P  10      78.049   2.650  62.796  1.00 46.36 LIG-0.65  OA
ENDBRANCH 18 19
BRANCH 18 22
ATOM     22  CB  PHE P  10      76.470   0.030  61.743  1.00 51.88 LIG 0.07  C 
BRANCH 22 23
ATOM     23  CG  PHE P  10      77.443  -0.461  62.782  1.00 51.17 LIG-0.06  A 
ATOM     24  CD1 PHE P  10      78.735  -0.810  62.429  1.00 49.53 LIG 0.01  A 
ATOM     25  CE1 PHE P  10      79.625  -1.275  63.377  1.00 54.45 LIG 0.00  A 
ATOM     26  CZ  PHE P  10      79.224  -1.412  64.692  1.00 54.40 LIG 0.00  A 
ATOM     27  CE2 PHE P  10      77.939  -1.075  65.056  1.00 52.97 LIG 0.00  A 
ATOM     28  CD2 PHE P  10      77.051  -0.609  64.103  1.00 50.02 LIG 0.01  A 
ENDBRANCH 22 23
ENDBRANCH 18 22
ENDBRANCH 16 18
ENDBRANCH 6 14
ENDBRANCH 3 6
ENDBRANCH 1 2
BRANCH 1 29
ATOM     29  CB  TYR P   8      80.747  -2.869  60.559  1.00 54.61 LIG 0.07  C 
BRANCH 29 30
ATOM     30  CG  TYR P   8      80.828  -4.375  60.494  1.00 66.64 LIG-0.06  A 
ATOM     31  CD1 TYR P   8      82.057  -5.020  60.430  1.00 68.29 LIG 0.01  A 
ATOM     32  CE1 TYR P   8      82.137  -6.395  60.365  1.00 71.89 LIG 0.04  A 
ATOM     33  CZ  TYR P   8      80.979  -7.144  60.358  1.00 71.50 LIG 0.07  A 
ATOM     34  CE2 TYR P   8      79.747  -6.528  60.417  1.00 69.11 LIG 0.04  A 
ATOM     35  CD2 TYR P   8      79.678  -5.152  60.481  1.00 65.21 LIG 0.01  A 
BRANCH 33 36
ATOM     36 OH   TYR P   8      81.054  -8.516  60.293  1.00 83.55 LIG-0.36  OA
ATOM     37 HH   TYR P   8      81.737  -8.779  60.705  1.00 83.55 LIG 0.22  HD
ENDBRANCH 33 36
ENDBRANCH 29 30
ENDBRANCH 1 29
BRANCH 1 38
ATOM     38  N   TYR P   8      82.698  -2.147  59.240  1.00 59.31 LIG-0.35  N 
ATOM     39  C   VAL P   7      83.372  -1.775  58.156  1.00 65.10 LIG 0.24  C 
ATOM     40 O    VAL P   7      82.819  -1.468  57.091  1.00 66.40 LIG-0.27  OA
ATOM     41 H    TYR P   8      83.079  -2.408  59.966  1.00 59.31 LIG 0.16  HD
BRANCH 39 42
ATOM     42  CA  VAL P   7      84.889  -1.745  58.281  1.00 68.90 LIG 0.18  C 
BRANCH 42 43
ATOM     43  N   VAL P   7      85.465  -1.490  56.967  1.00 69.26 LIG-0.34  N 
ATOM     44  C   LEU P   6      86.685  -1.893  56.623  1.00 74.59 LIG 0.26  C 
ATOM     45 O    LEU P   6      87.407  -2.550  57.378  1.00 73.78 LIG-0.27  OA
ATOM     46 H    VAL P   7      84.945  -1.056  56.438  1.00 69.26 LIG 0.16  HD
BRANCH 44 47
ATOM     47  CA  LEU P   6      87.135  -1.509  55.211  1.00 78.06 LIG 0.40  C 
ATOM     48  N   LEU P   6      86.002  -1.510  54.294  1.00 74.40 LIG 0.61  N 
BRANCH 47 49
ATOM     49  CB  LEU P   6      87.829  -0.141  55.201  1.00 78.52 LIG 0.06  C 
BRANCH 49 50
ATOM     50  CG  LEU P   6      88.278   0.527  56.504  1.00 77.43 LIG-0.02  C 
ATOM     51  CD2 LEU P   6      87.846   1.986  56.584  1.00 73.93 LIG 0.01  C 
ATOM     52  CD1 LEU P   6      89.782   0.389  56.615  1.00 75.78 LIG 0.01  C 
ENDBRANCH 49 50
ENDBRANCH 47 49
ENDBRANCH 44 47
ENDBRANCH 42 43
BRANCH 42 53
ATOM     53  CB  VAL P   7      85.340  -0.685  59.299  1.00 67.45 LIG 0.01  C 
ATOM     54  CG2 VAL P   7      85.431   0.677  58.635  1.00 67.18 LIG 0.01  C 
ATOM     55  CG1 VAL P   7      86.676  -1.067  59.905  1.00 63.58 LIG 0.01  C 
ENDBRANCH 42 53
ENDBRANCH 39 42
ENDBRANCH 1 38
TORSDOF 20
ENDMDL
MODEL 9
USER: ADFR SOLUTION from run 114
USER: SCORE 18.600047 LL:  -4.831 LR: -15.743 RR:   0.000 FEB:  -9.777
USER: RMSD 2.967438
USER: SEED 113
USER: STATUS no improvement in best in 9 clusters for 5 generations
USER: GENES 22
USER: genes 0 Translation |==|  0.44338 0.44393 0.42186
USER: genes 1 Rotation |==|  0.55863 0.41555 0.43380 0.98482
USER: genes 2 Torsion [N]-CA--C-[N] |==|  0.45242
USER: genes 3 Torsion [C]-N--CA-[CB] |==|  0.38918
USER: genes 4 Torsion [N]-CA--CB-[CG] |==|  0.05837
USER: genes 5 Torsion [CA]-CB--CG-[CD] |==|  0.27502
USER: genes 6 Torsion [CB]-CG--CD-[OE1] |==|  0.94616
USER: genes 7 Torsion [N]-CA--C-[N] |==|  0.42654
USER: genes 8 Torsion [C]-N--CA-[C] |==|  0.63083
USER: genes 9 Torsion [N]-CA--C-[O] |==|  0.42365
USER: genes 10 Torsion [N]-CA--CB-[CG] |==|  0.89381
USER: genes 11 Torsion [CA]-CB--CG-[CD1] |==|  0.70589
USER: genes 12 Torsion [C]-CA--CB-[CG] |==|  0.52300
USER: genes 13 Torsion [CA]-CB--CG-[CD1] |==|  0.76473
USER: genes 14 Torsion [CE1]-CZ--OH-[HH] |==|  0.58224
USER: genes 15 Torsion [C]-CA--N-[C] |==|  0.58901
USER: genes 16 Torsion [N]-C--CA-[N] |==|  0.33147
USER: genes 17 Torsion [C]-CA--N-[C] |==|  0.74320
USER: genes 18 Torsion [N]-C--CA-[N] |==|  0.85232
USER: genes 19 Torsion [C]-CA--CB-[CG] |==|  0.15325
USER: genes 20 Torsion [CA]-CB--CG-[CD2] |==|  0.67448
USER: genes 21 Torsion [C]-CA--CB-[CG2] |==|  0.57123
ROOT
ATOM      1  CA  TYR P   8      81.275  -3.428  59.333  1.00 57.99 LIG 0.18  C 
ENDROOT
BRANCH 1 2
ATOM      2  C   TYR P   8      81.087  -2.034  59.914  1.00 56.68 LIG 0.24  C 
ATOM      3  N   GLN P   9      80.134  -1.288  59.365  1.00 57.67 LIG-0.35  N 
ATOM      4 H    GLN P   9      79.673  -1.528  58.680  1.00 57.67 LIG 0.16  HD
ATOM      5 O    TYR P   8      81.798  -1.647  60.847  1.00 54.26 LIG-0.27  OA
BRANCH 3 6
ATOM      6  CA  GLN P   9      79.784   0.025  59.892  1.00 54.86 LIG 0.18  C 
BRANCH 6 7
ATOM      7  CB  GLN P   9      79.511   1.014  58.762  1.00 52.41 LIG 0.04  C 
BRANCH 7 8
ATOM      8  CG  GLN P   9      79.164   0.355  57.438  1.00 53.63 LIG 0.10  C 
BRANCH 8 9
ATOM      9  CD  GLN P   9      77.674   0.323  57.187  1.00 56.56 LIG 0.21  C 
ATOM     10 OE1  GLN P   9      76.877   0.458  58.115  1.00 59.67 LIG-0.27  OA
ATOM     11  NE2 GLN P   9      77.286   0.144  55.928  1.00 58.55 LIG-0.37  N 
ATOM     12 22HE GLN P   9      76.448   0.118  55.736  1.00 58.55 LIG 0.16  HD
ATOM     13 21HE GLN P   9      77.873   0.053  55.306  1.00 58.55 LIG 0.16  HD
ENDBRANCH 8 9
ENDBRANCH 7 8
ENDBRANCH 6 7
BRANCH 6 14
ATOM     14  C   GLN P   9      78.562  -0.114  60.791  1.00 54.72 LIG 0.24  C 
ATOM     15 O    GLN P   9      77.764  -1.043  60.621  1.00 59.60 LIG-0.27  OA
ATOM     16  N   PHE P  10      78.424   0.795  61.749  1.00 49.02 LIG-0.34  N 
ATOM     17 H    PHE P  10      78.994   1.418  61.913  1.00 49.02 LIG 0.16  HD
BRANCH 16 18
ATOM     18  CA  PHE P  10      77.254   0.797  62.617  1.00 50.33 LIG 0.19  C 
BRANCH 18 19
ATOM     19  C   PHE P  10      76.660   2.194  62.751  1.00 49.91 LIG 0.20  C 
ATOM     20 O    PHE P  10      75.459   2.340  62.990  1.00 45.93 LIG-0.65  OA
ATOM     21 OXT  PHE P  10      77.363   3.197  62.615  1.00 46.36 LIG-0.65  OA
ENDBRANCH 18 19
BRANCH 18 22
ATOM     22  CB  PHE P  10      77.600   0.227  63.995  1.00 51.88 LIG 0.07  C 
BRANCH 22 23
ATOM     23  CG  PHE P  10      78.555  -0.936  63.964  1.00 51.17 LIG-0.06  A 
ATOM     24  CD1 PHE P  10      78.104  -2.225  64.197  1.00 49.53 LIG 0.01  A 
ATOM     25  CE1 PHE P  10      78.981  -3.292  64.184  1.00 54.45 LIG 0.00  A 
ATOM     26  CZ  PHE P  10      80.325  -3.078  63.953  1.00 54.40 LIG 0.00  A 
ATOM     27  CE2 PHE P  10      80.788  -1.800  63.727  1.00 52.97 LIG 0.00  A 
ATOM     28  CD2 PHE P  10      79.907  -0.735  63.741  1.00 50.02 LIG 0.01  A 
ENDBRANCH 22 23
ENDBRANCH 18 22
ENDBRANCH 16 18
ENDBRANCH 6 14
ENDBRANCH 3 6
ENDBRANCH 1 2
BRANCH 1 29
ATOM     29  CB  TYR P   8      80.149  -4.348  59.805  1.00 54.61 LIG 0.07  C 
BRANCH 29 30
ATOM     30  CG  TYR P   8      80.337  -5.804  59.453  1.00 66.64 LIG-0.06  A 
ATOM     31  CD1 TYR P   8      79.949  -6.291  58.211  1.00 68.29 LIG 0.01  A 
ATOM     32  CE1 TYR P   8      80.112  -7.621  57.885  1.00 71.89 LIG 0.04  A 
ATOM     33  CZ  TYR P   8      80.666  -8.484  58.809  1.00 71.50 LIG 0.07  A 
ATOM     34  CE2 TYR P   8      81.055  -8.025  60.049  1.00 69.11 LIG 0.04  A 
ATOM     35  CD2 TYR P   8      80.886  -6.694  60.365  1.00 65.21 LIG 0.01  A 
BRANCH 33 36
ATOM     36 OH   TYR P   8      80.830  -9.811  58.488  1.00 83.55 LIG-0.36  OA
ATOM     37 HH   TYR P   8      80.778 -10.276  59.186  1.00 83.55 LIG 0.22  HD
ENDBRANCH 33 36
ENDBRANCH 29 30
ENDBRANCH 1 29
BRANCH 1 38
ATOM     38  N   TYR P   8      82.576  -3.935  59.746  1.00 59.31 LIG-0.35  N 
ATOM     39  C   VAL P   7      83.304  -4.755  58.994  1.00 65.10 LIG 0.24  C 
ATOM     40 O    VAL P   7      82.905  -5.211  57.914  1.00 66.40 LIG-0.27  OA
ATOM     41 H    TYR P   8      82.829  -3.655  60.520  1.00 59.31 LIG 0.16  HD
BRANCH 39 42
ATOM     42  CA  VAL P   7      84.680  -5.123  59.532  1.00 68.90 LIG 0.18  C 
BRANCH 42 43
ATOM     43  N   VAL P   7      84.741  -6.566  59.725  1.00 69.26 LIG-0.34  N 
ATOM     44  C   LEU P   6      84.441  -7.153  60.879  1.00 74.59 LIG 0.26  C 
ATOM     45 O    LEU P   6      84.049  -6.524  61.865  1.00 73.78 LIG-0.27  OA
ATOM     46 H    VAL P   7      84.988  -6.999  59.024  1.00 69.26 LIG 0.16  HD
BRANCH 44 47
ATOM     47  CA  LEU P   6      84.591  -8.677  60.905  1.00 78.06 LIG 0.40  C 
ATOM     48  N   LEU P   6      83.847  -9.284  59.808  1.00 74.40 LIG 0.61  N 
BRANCH 47 49
ATOM     49  CB  LEU P   6      86.067  -9.093  60.845  1.00 78.52 LIG 0.06  C 
BRANCH 49 50
ATOM     50  CG  LEU P   6      87.079  -8.562  61.865  1.00 77.43 LIG-0.02  C 
ATOM     51  CD2 LEU P   6      88.172  -7.724  61.211  1.00 73.93 LIG 0.01  C 
ATOM     52  CD1 LEU P   6      87.661  -9.741  62.614  1.00 75.78 LIG 0.01  C 
ENDBRANCH 49 50
ENDBRANCH 47 49
ENDBRANCH 44 47
ENDBRANCH 42 43
BRANCH 42 53
ATOM     53  CB  VAL P   7      85.792  -4.643  58.583  1.00 67.45 LIG 0.01  C 
ATOM     54  CG2 VAL P   7      87.032  -5.503  58.750  1.00 67.18 LIG 0.01  C 
ATOM     55  CG1 VAL P   7      86.120  -3.187  58.844  1.00 63.58 LIG 0.01  C 
ENDBRANCH 42 53
ENDBRANCH 39 42
ENDBRANCH 1 38
TORSDOF 20
ENDMDL
MODEL 10
USER: ADFR SOLUTION from run 30
USER: SCORE 18.474901 LL:  -4.554 LR: -15.745 RR:   0.000 FEB:  -9.779
USER: RMSD 2.459092
USER: SEED 29
USER: STATUS no improvement in best in 4 clusters for 5 generations
USER: GENES 22
USER: genes 0 Translation |==|  0.43318 0.49610 0.42134
USER: genes 1 Rotation |==|  0.51718 0.51114 0.50747 0.99952
USER: genes 2 Torsion [N]-CA--C-[N] |==|  0.36305
USER: genes 3 Torsion [C]-N--CA-[CB] |==|  0.41790
USER: genes 4 Torsion [N]-CA--CB-[CG] |==|  0.51119
USER: genes 5 Torsion [CA]-CB--CG-[CD] |==|  0.18050
USER: genes 6 Torsion [CB]-CG--CD-[OE1] |==|  0.01233
USER: genes 7 Torsion [N]-CA--C-[N] |==|  0.31545
USER: genes 8 Torsion [C]-N--CA-[C] |==|  0.73510
USER: genes 9 Torsion [N]-CA--C-[O] |==|  0.95768
USER: genes 10 Torsion [N]-CA--CB-[CG] |==|  0.84129
USER: genes 11 Torsion [CA]-CB--CG-[CD1] |==|  0.68888
USER: genes 12 Torsion [C]-CA--CB-[CG] |==|  0.39805
USER: genes 13 Torsion [CA]-CB--CG-[CD1] |==|  0.50113
USER: genes 14 Torsion [CE1]-CZ--OH-[HH] |==|  0.34447
USER: genes 15 Torsion [C]-CA--N-[C] |==|  0.71607
USER: genes 16 Torsion [N]-C--CA-[N] |==|  0.40756
USER: genes 17 Torsion [C]-CA--N-[C] |==|  0.58986
USER: genes 18 Torsion [N]-C--CA-[N] |==|  0.63517
USER: genes 19 Torsion [C]-CA--CB-[CG] |==|  0.77649
USER: genes 20 Torsion [CA]-CB--CG-[CD2] |==|  0.68794
USER: genes 21 Torsion [C]-CA--CB-[CG2] |==|  0.34194
ROOT
ATOM      1  CA  TYR P   8      81.046  -2.255  59.324  1.00 57.99 LIG 0.18  C 
ENDROOT
BRANCH 1 2
ATOM      2  C   TYR P   8      80.610  -0.871  59.784  1.00 56.68 LIG 0.24  C 
ATOM      3  N   GLN P   9      79.665  -0.277  59.061  1.00 57.67 LIG-0.35  N 
ATOM      4 H    GLN P   9      79.342  -0.604  58.334  1.00 57.67 LIG 0.16  HD
ATOM      5 O    TYR P   8      81.125  -0.355  60.781  1.00 54.26 LIG-0.27  OA
BRANCH 3 6
ATOM      6  CA  GLN P   9      79.088   1.003  59.450  1.00 54.86 LIG 0.18  C 
BRANCH 6 7
ATOM      7  CB  GLN P   9      78.634   1.794  58.226  1.00 52.41 LIG 0.04  C 
BRANCH 7 8
ATOM      8  CG  GLN P   9      78.110   3.182  58.552  1.00 53.63 LIG 0.10  C 
BRANCH 8 9
ATOM      9  CD  GLN P   9      79.184   4.081  59.120  1.00 56.56 LIG 0.21  C 
ATOM     10 OE1  GLN P   9      80.350   3.695  59.199  1.00 59.67 LIG-0.27  OA
ATOM     11  NE2 GLN P   9      78.799   5.289  59.522  1.00 58.55 LIG-0.37  N 
ATOM     12 22HE GLN P   9      79.374   5.836  59.853  1.00 58.55 LIG 0.16  HD
ATOM     13 21HE GLN P   9      77.975   5.522  59.451  1.00 58.55 LIG 0.16  HD
ENDBRANCH 8 9
ENDBRANCH 7 8
ENDBRANCH 6 7
BRANCH 6 14
ATOM     14  C   GLN P   9      77.918   0.750  60.391  1.00 54.72 LIG 0.24  C 
ATOM     15 O    GLN P   9      76.902   0.175  59.985  1.00 59.60 LIG-0.27  OA
ATOM     16  N   PHE P  10      78.064   1.166  61.644  1.00 49.02 LIG-0.34  N 
ATOM     17 H    PHE P  10      78.781   1.523  61.957  1.00 49.02 LIG 0.16  HD
BRANCH 16 18
ATOM     18  CA  PHE P  10      76.978   1.040  62.607  1.00 50.33 LIG 0.19  C 
BRANCH 18 19
ATOM     19  C   PHE P  10      76.163   2.323  62.702  1.00 49.91 LIG 0.20  C 
ATOM     20 O    PHE P  10      76.603   3.378  62.240  1.00 45.93 LIG-0.65  OA
ATOM     21 OXT  PHE P  10      75.058   2.333  63.249  1.00 46.36 LIG-0.65  OA
ENDBRANCH 18 19
BRANCH 18 22
ATOM     22  CB  PHE P  10      77.517   0.645  63.985  1.00 51.88 LIG 0.07  C 
BRANCH 22 23
ATOM     23  CG  PHE P  10      78.314  -0.633  63.997  1.00 51.17 LIG-0.06  A 
ATOM     24  CD1 PHE P  10      77.829  -1.761  64.638  1.00 49.53 LIG 0.01  A 
ATOM     25  CE1 PHE P  10      78.565  -2.929  64.662  1.00 54.45 LIG 0.00  A 
ATOM     26  CZ  PHE P  10      79.805  -2.977  64.058  1.00 54.40 LIG 0.00  A 
ATOM     27  CE2 PHE P  10      80.303  -1.860  63.423  1.00 52.97 LIG 0.00  A 
ATOM     28  CD2 PHE P  10      79.563  -0.692  63.400  1.00 50.02 LIG 0.01  A 
ENDBRANCH 22 23
ENDBRANCH 18 22
ENDBRANCH 16 18
ENDBRANCH 6 14
ENDBRANCH 3 6
ENDBRANCH 1 2
BRANCH 1 29
ATOM     29  CB  TYR P   8      80.510  -3.317  60.283  1.00 54.61 LIG 0.07  C 
BRANCH 29 30
ATOM     30  CG  TYR P   8      80.084  -4.605  59.620  1.00 66.64 LIG-0.06  A 
ATOM     31  CD1 TYR P   8      79.570  -5.655  60.370  1.00 68.29 LIG 0.01  A 
ATOM     32  CE1 TYR P   8      79.184  -6.836  59.771  1.00 71.89 LIG 0.04  A 
ATOM     33  CZ  TYR P   8      79.316  -6.981  58.405  1.00 71.50 LIG 0.07  A 
ATOM     34  CE2 TYR P   8      79.828  -5.955  57.640  1.00 69.11 LIG 0.04  A 
ATOM     35  CD2 TYR P   8      80.211  -4.778  58.248  1.00 65.21 LIG 0.01  A 
BRANCH 33 36
ATOM     36 OH   TYR P   8      78.933  -8.157  57.804  1.00 83.55 LIG-0.36  OA
ATOM     37 HH   TYR P   8      78.369  -7.994  57.204  1.00 83.55 LIG 0.22  HD
ENDBRANCH 33 36
ENDBRANCH 29 30
ENDBRANCH 1 29
BRANCH 1 38
ATOM     38  N   TYR P   8      82.500  -2.289  59.259  1.00 59.31 LIG-0.35  N 
ATOM     39  C   VAL P   7      83.174  -2.198  58.116  1.00 65.10 LIG 0.24  C 
ATOM     40 O    VAL P   7      82.622  -2.148  57.010  1.00 66.40 LIG-0.27  OA
ATOM     41 H    TYR P   8      82.880  -2.373  60.026  1.00 59.31 LIG 0.16  HD
BRANCH 39 42
ATOM     42  CA  VAL P   7      84.692  -2.162  58.230  1.00 68.90 LIG 0.18  C 
BRANCH 42 43
ATOM     43  N   VAL P   7      85.268  -2.831  57.070  1.00 69.26 LIG-0.34  N 
ATOM     44  C   LEU P   6      86.410  -3.510  57.122  1.00 74.59 LIG 0.26  C 
ATOM     45 O    LEU P   6      87.050  -3.660  58.166  1.00 73.78 LIG-0.27  OA
ATOM     46 H    VAL P   7      84.801  -2.746  56.353  1.00 69.26 LIG 0.16  HD
BRANCH 44 47
ATOM     47  CA  LEU P   6      86.876  -4.122  55.798  1.00 78.06 LIG 0.40  C 
ATOM     48  N   LEU P   6      87.240  -5.522  55.981  1.00 74.40 LIG 0.61  N 
BRANCH 47 49
ATOM     49  CB  LEU P   6      85.801  -3.987  54.712  1.00 78.52 LIG 0.06  C 
BRANCH 49 50
ATOM     50  CG  LEU P   6      84.618  -4.958  54.646  1.00 77.43 LIG-0.02  C 
ATOM     51  CD2 LEU P   6      84.672  -5.851  53.413  1.00 73.93 LIG 0.01  C 
ATOM     52  CD1 LEU P   6      83.338  -4.150  54.688  1.00 75.78 LIG 0.01  C 
ENDBRANCH 49 50
ENDBRANCH 47 49
ENDBRANCH 44 47
ENDBRANCH 42 43
BRANCH 42 53
ATOM     53  CB  VAL P   7      85.205  -0.716  58.345  1.00 67.45 LIG 0.01  C 
ATOM     54  CG2 VAL P   7      86.024  -0.549  59.612  1.00 67.18 LIG 0.01  C 
ATOM     55  CG1 VAL P   7      84.045   0.260  58.333  1.00 63.58 LIG 0.01  C 
ENDBRANCH 42 53
ENDBRANCH 39 42
ENDBRANCH 1 38
TORSDOF 20
ENDMDL
MODEL 11
USER: ADFR SOLUTION from run 191
USER: SCORE 17.920805 LL:  -4.657 LR: -15.691 RR:   0.000 FEB:  -9.725
USER: RMSD 3.498531
USER: SEED 190
USER: STATUS no improvement in best in 18 clusters for 5 generations
USER: GENES 22
USER: genes 0 Translation |==|  0.43789 0.50255 0.42179
USER: genes 1 Rotation |==|  0.45415 0.56435 0.50284 0.99371
USER: genes 2 Torsion [N]-CA--C-[N] |==|  0.33148
USER: genes 3 Torsion [C]-N--CA-[CB] |==|  0.36160
USER: genes 4 Torsion [N]-CA--CB-[CG] |==|  0.47952
USER: genes 5 Torsion [CA]-CB--CG-[CD] |==|  0.14227
USER: genes 6 Torsion [CB]-CG--CD-[OE1] |==|  0.05154
USER: genes 7 Torsion [N]-CA--C-[N] |==|  0.29350
USER: genes 8 Torsion [C]-N--CA-[C] |==|  0.56706
USER: genes 9 Torsion [N]-CA--C-[O] |==|  0.49238
USER: genes 10 Torsion [N]-CA--CB-[CG] |==|  0.16730
USER: genes 11 Torsion [CA]-CB--CG-[CD1] |==|  0.78355
USER: genes 12 Torsion [C]-CA--CB-[CG] |==|  0.46834
USER: genes 13 Torsion [CA]-CB--CG-[CD1] |==|  0.69305
USER: genes 14 Torsion [CE1]-CZ--OH-[HH] |==|  0.75809
USER: genes 15 Torsion [C]-CA--N-[C] |==|  0.79604
USER: genes 16 Torsion [N]-C--CA-[N] |==|  0.66598
USER: genes 17 Torsion [C]-CA--N-[C] |==|  0.13901
USER: genes 18 Torsion [N]-C--CA-[N] |==|  0.46531
USER: genes 19 Torsion [C]-CA--CB-[CG] |==|  0.25507
USER: genes 20 Torsion [CA]-CB--CG-[CD2] |==|  0.71505
USER: genes 21 Torsion [C]-CA--CB-[CG2] |==|  0.59630
ROOT
ATOM      1  CA  TYR P   8      81.152  -2.110  59.332  1.00 57.99 LIG 0.18  C 
ENDROOT
BRANCH 1 2
ATOM      2  C   TYR P   8      80.791  -0.642  59.508  1.00 56.68 LIG 0.24  C 
ATOM      3  N   GLN P   9      79.854  -0.160  58.698  1.00 57.67 LIG-0.35  N 
ATOM      4 H    GLN P   9      79.496  -0.612  58.059  1.00 57.67 LIG 0.16  HD
ATOM      5 O    TYR P   8      81.357   0.039  60.370  1.00 54.26 LIG-0.27  OA
BRANCH 3 6
ATOM      6  CA  GLN P   9      79.346   1.198  58.828  1.00 54.86 LIG 0.18  C 
BRANCH 6 7
ATOM      7  CB  GLN P   9      79.362   1.922  57.484  1.00 52.41 LIG 0.04  C 
BRANCH 7 8
ATOM      8  CG  GLN P   9      78.683   3.280  57.510  1.00 53.63 LIG 0.10  C 
BRANCH 8 9
ATOM      9  CD  GLN P   9      79.191   4.154  58.634  1.00 56.56 LIG 0.21  C 
ATOM     10 OE1  GLN P   9      80.264   3.909  59.184  1.00 59.67 LIG-0.27  OA
ATOM     11  NE2 GLN P   9      78.424   5.182  58.982  1.00 58.55 LIG-0.37  N 
ATOM     12 22HE GLN P   9      78.671   5.708  59.617  1.00 58.55 LIG 0.16  HD
ATOM     13 21HE GLN P   9      77.681   5.322  58.574  1.00 58.55 LIG 0.16  HD
ENDBRANCH 8 9
ENDBRANCH 7 8
ENDBRANCH 6 7
BRANCH 6 14
ATOM     14  C   GLN P   9      77.931   1.144  59.392  1.00 54.72 LIG 0.24  C 
ATOM     15 O    GLN P   9      76.990   0.773  58.682  1.00 59.60 LIG-0.27  OA
ATOM     16  N   PHE P  10      77.785   1.498  60.664  1.00 49.02 LIG-0.34  N 
ATOM     17 H    PHE P  10      78.435   1.711  61.186  1.00 49.02 LIG 0.16  HD
BRANCH 16 18
ATOM     18  CA  PHE P  10      76.467   1.552  61.280  1.00 50.33 LIG 0.19  C 
BRANCH 18 19
ATOM     19  C   PHE P  10      76.444   2.500  62.472  1.00 49.91 LIG 0.20  C 
ATOM     20 O    PHE P  10      75.394   2.708  63.084  1.00 45.93 LIG-0.65  OA
ATOM     21 OXT  PHE P  10      77.467   3.083  62.838  1.00 46.36 LIG-0.65  OA
ENDBRANCH 18 19
BRANCH 18 22
ATOM     22  CB  PHE P  10      76.006   0.153  61.700  1.00 51.88 LIG 0.07  C 
BRANCH 22 23
ATOM     23  CG  PHE P  10      76.906  -0.522  62.701  1.00 51.17 LIG-0.06  A 
ATOM     24  CD1 PHE P  10      78.096  -1.105  62.298  1.00 49.53 LIG 0.01  A 
ATOM     25  CE1 PHE P  10      78.917  -1.737  63.211  1.00 54.45 LIG 0.00  A 
ATOM     26  CZ  PHE P  10      78.545  -1.809  64.539  1.00 54.40 LIG 0.00  A 
ATOM     27  CE2 PHE P  10      77.360  -1.239  64.952  1.00 52.97 LIG 0.00  A 
ATOM     28  CD2 PHE P  10      76.542  -0.607  64.035  1.00 50.02 LIG 0.01  A 
ENDBRANCH 22 23
ENDBRANCH 18 22
ENDBRANCH 16 18
ENDBRANCH 6 14
ENDBRANCH 3 6
ENDBRANCH 1 2
BRANCH 1 29
ATOM     29  CB  TYR P   8      80.850  -2.881  60.616  1.00 54.61 LIG 0.07  C 
BRANCH 29 30
ATOM     30  CG  TYR P   8      80.911  -4.383  60.478  1.00 66.64 LIG-0.06  A 
ATOM     31  CD1 TYR P   8      79.756  -5.152  60.550  1.00 68.29 LIG 0.01  A 
ATOM     32  CE1 TYR P   8      79.806  -6.525  60.429  1.00 71.89 LIG 0.04  A 
ATOM     33  CZ  TYR P   8      81.023  -7.146  60.239  1.00 71.50 LIG 0.07  A 
ATOM     34  CE2 TYR P   8      82.183  -6.406  60.169  1.00 69.11 LIG 0.04  A 
ATOM     35  CD2 TYR P   8      82.123  -5.033  60.291  1.00 65.21 LIG 0.01  A 
BRANCH 33 36
ATOM     36 OH   TYR P   8      81.077  -8.515  60.119  1.00 83.55 LIG-0.36  OA
ATOM     37 HH   TYR P   8      81.137  -8.861  60.882  1.00 83.55 LIG 0.22  HD
ENDBRANCH 33 36
ENDBRANCH 29 30
ENDBRANCH 1 29
BRANCH 1 38
ATOM     38  N   TYR P   8      82.561  -2.206  58.979  1.00 59.31 LIG-0.35  N 
ATOM     39  C   VAL P   7      83.029  -1.874  57.779  1.00 65.10 LIG 0.24  C 
ATOM     40 O    VAL P   7      82.298  -1.525  56.843  1.00 66.40 LIG-0.27  OA
ATOM     41 H    TYR P   8      83.060  -2.496  59.617  1.00 59.31 LIG 0.16  HD
BRANCH 39 42
ATOM     42  CA  VAL P   7      84.539  -1.949  57.600  1.00 68.90 LIG 0.18  C 
BRANCH 42 43
ATOM     43  N   VAL P   7      85.037  -0.628  57.238  1.00 69.26 LIG-0.34  N 
ATOM     44  C   LEU P   6      84.723   0.472  57.914  1.00 74.59 LIG 0.26  C 
ATOM     45 O    LEU P   6      84.018   0.454  58.926  1.00 73.78 LIG-0.27  OA
ATOM     46 H    VAL P   7      85.551  -0.628  56.548  1.00 69.26 LIG 0.16  HD
BRANCH 44 47
ATOM     47  CA  LEU P   6      85.315   1.775  57.370  1.00 78.06 LIG 0.40  C 
ATOM     48  N   LEU P   6      84.679   2.928  57.997  1.00 74.40 LIG 0.61  N 
BRANCH 47 49
ATOM     49  CB  LEU P   6      86.835   1.826  57.575  1.00 78.52 LIG 0.06  C 
BRANCH 49 50
ATOM     50  CG  LEU P   6      87.794   1.321  56.493  1.00 77.43 LIG-0.02  C 
ATOM     51  CD2 LEU P   6      88.362  -0.055  56.822  1.00 73.93 LIG 0.01  C 
ATOM     52  CD1 LEU P   6      88.895   2.345  56.319  1.00 75.78 LIG 0.01  C 
ENDBRANCH 49 50
ENDBRANCH 47 49
ENDBRANCH 44 47
ENDBRANCH 42 43
BRANCH 42 53
ATOM     53  CB  VAL P   7      85.224  -2.467  58.877  1.00 67.45 LIG 0.01  C 
ATOM     54  CG2 VAL P   7      86.572  -1.793  59.061  1.00 67.18 LIG 0.01  C 
ATOM     55  CG1 VAL P   7      85.390  -3.972  58.815  1.00 63.58 LIG 0.01  C 
ENDBRANCH 42 53
ENDBRANCH 39 42
ENDBRANCH 1 38
TORSDOF 20
ENDMDL
MODEL 12
USER: ADFR SOLUTION from run 101
USER: SCORE 18.449532 LL:  -4.367 LR: -15.672 RR:   0.000 FEB:  -9.706
USER: RMSD 4.287233
USER: SEED 100
USER: STATUS no improvement in best in 8 clusters for 5 generations
USER: GENES 22
USER: genes 0 Translation |==|  0.43660 0.49133 0.40895
USER: genes 1 Rotation |==|  0.46331 0.44038 0.37281 0.97846
USER: genes 2 Torsion [N]-CA--C-[N] |==|  0.49444
USER: genes 3 Torsion [C]-N--CA-[CB] |==|  0.23633
USER: genes 4 Torsion [N]-CA--CB-[CG] |==|  0.48296
USER: genes 5 Torsion [CA]-CB--CG-[CD] |==|  0.30316
USER: genes 6 Torsion [CB]-CG--CD-[OE1] |==|  0.65371
USER: genes 7 Torsion [N]-CA--C-[N] |==|  0.23322
USER: genes 8 Torsion [C]-N--CA-[C] |==|  0.54832
USER: genes 9 Torsion [N]-CA--C-[O] |==|  0.49048
USER: genes 10 Torsion [N]-CA--CB-[CG] |==|  0.27953
USER: genes 11 Torsion [CA]-CB--CG-[CD1] |==|  0.80159
USER: genes 12 Torsion [C]-CA--CB-[CG] |==|  0.82812
USER: genes 13 Torsion [CA]-CB--CG-[CD1] |==|  0.72462
USER: genes 14 Torsion [CE1]-CZ--OH-[HH] |==|  0.65931
USER: genes 15 Torsion [C]-CA--N-[C] |==|  0.54161
USER: genes 16 Torsion [N]-C--CA-[N] |==|  0.44966
USER: genes 17 Torsion [C]-CA--N-[C] |==|  0.67402
USER: genes 18 Torsion [N]-C--CA-[N] |==|  0.60213
USER: genes 19 Torsion [C]-CA--CB-[CG] |==|  0.77456
USER: genes 20 Torsion [CA]-CB--CG-[CD2] |==|  0.44823
USER: genes 21 Torsion [C]-CA--CB-[CG2] |==|  0.56285
ROOT
ATOM      1  CA  TYR P   8      81.122  -2.362  59.101  1.00 57.99 LIG 0.18  C 
ENDROOT
BRANCH 1 2
ATOM      2  C   TYR P   8      81.428  -0.875  59.209  1.00 56.68 LIG 0.24  C 
ATOM      3  N   GLN P   9      80.459  -0.043  58.841  1.00 57.67 LIG-0.35  N 
ATOM      4 H    GLN P   9      79.712  -0.299  58.500  1.00 57.67 LIG 0.16  HD
ATOM      5 O    TYR P   8      82.528  -0.494  59.621  1.00 54.26 LIG-0.27  OA
BRANCH 3 6
ATOM      6  CA  GLN P   9      80.586   1.401  58.989  1.00 54.86 LIG 0.18  C 
BRANCH 6 7
ATOM      7  CB  GLN P   9      81.310   2.014  57.793  1.00 52.41 LIG 0.04  C 
BRANCH 7 8
ATOM      8  CG  GLN P   9      81.347   3.532  57.811  1.00 53.63 LIG 0.10  C 
BRANCH 8 9
ATOM      9  CD  GLN P   9      82.732   4.069  58.094  1.00 56.56 LIG 0.21  C 
ATOM     10 OE1  GLN P   9      82.925   4.849  59.026  1.00 59.67 LIG-0.27  OA
ATOM     11  NE2 GLN P   9      83.706   3.655  57.290  1.00 58.55 LIG-0.37  N 
ATOM     12 22HE GLN P   9      84.511   3.933  57.411  1.00 58.55 LIG 0.16  HD
ATOM     13 21HE GLN P   9      83.532   3.109  56.649  1.00 58.55 LIG 0.16  HD
ENDBRANCH 8 9
ENDBRANCH 7 8
ENDBRANCH 6 7
BRANCH 6 14
ATOM     14  C   GLN P   9      79.195   2.004  59.142  1.00 54.72 LIG 0.24  C 
ATOM     15 O    GLN P   9      78.599   2.457  58.158  1.00 59.60 LIG-0.27  OA
ATOM     16  N   PHE P  10      78.677   1.998  60.365  1.00 49.02 LIG-0.34  N 
ATOM     17 H    PHE P  10      79.056   1.643  61.051  1.00 49.02 LIG 0.16  HD
BRANCH 16 18
ATOM     18  CA  PHE P  10      77.386   2.615  60.635  1.00 50.33 LIG 0.19  C 
BRANCH 18 19
ATOM     19  C   PHE P  10      77.187   2.869  62.124  1.00 49.91 LIG 0.20  C 
ATOM     20 O    PHE P  10      76.174   3.444  62.529  1.00 45.93 LIG-0.65  OA
ATOM     21 OXT  PHE P  10      78.034   2.515  62.946  1.00 46.36 LIG-0.65  OA
ENDBRANCH 18 19
BRANCH 18 22
ATOM     22  CB  PHE P  10      76.246   1.755  60.082  1.00 51.88 LIG 0.07  C 
BRANCH 22 23
ATOM     23  CG  PHE P  10      75.545   0.914  61.116  1.00 51.17 LIG-0.06  A 
ATOM     24  CD1 PHE P  10      76.175  -0.184  61.678  1.00 49.53 LIG 0.01  A 
ATOM     25  CE1 PHE P  10      75.529  -0.964  62.616  1.00 54.45 LIG 0.00  A 
ATOM     26  CZ  PHE P  10      74.234  -0.665  62.990  1.00 54.40 LIG 0.00  A 
ATOM     27  CE2 PHE P  10      73.593   0.421  62.434  1.00 52.97 LIG 0.00  A 
ATOM     28  CD2 PHE P  10      74.243   1.200  61.496  1.00 50.02 LIG 0.01  A 
ENDBRANCH 22 23
ENDBRANCH 18 22
ENDBRANCH 16 18
ENDBRANCH 6 14
ENDBRANCH 3 6
ENDBRANCH 1 2
BRANCH 1 29
ATOM     29  CB  TYR P   8      79.924  -2.715  59.981  1.00 54.61 LIG 0.07  C 
BRANCH 29 30
ATOM     30  CG  TYR P   8      80.130  -2.462  61.455  1.00 66.64 LIG-0.06  A 
ATOM     31  CD1 TYR P   8      80.468  -3.500  62.314  1.00 68.29 LIG 0.01  A 
ATOM     32  CE1 TYR P   8      80.652  -3.276  63.663  1.00 71.89 LIG 0.04  A 
ATOM     33  CZ  TYR P   8      80.492  -2.003  64.169  1.00 71.50 LIG 0.07  A 
ATOM     34  CE2 TYR P   8      80.152  -0.958  63.337  1.00 69.11 LIG 0.04  A 
ATOM     35  CD2 TYR P   8      79.970  -1.192  61.990  1.00 65.21 LIG 0.01  A 
BRANCH 33 36
ATOM     36 OH   TYR P   8      80.674  -1.776  65.513  1.00 83.55 LIG-0.36  OA
ATOM     37 HH   TYR P   8      79.976  -1.440  65.837  1.00 83.55 LIG 0.22  HD
ENDBRANCH 33 36
ENDBRANCH 29 30
ENDBRANCH 1 29
BRANCH 1 38
ATOM     38  N   TYR P   8      82.306  -3.112  59.497  1.00 59.31 LIG-0.35  N 
ATOM     39  C   VAL P   7      82.459  -4.409  59.240  1.00 65.10 LIG 0.24  C 
ATOM     40 O    VAL P   7      81.580  -5.098  58.707  1.00 66.40 LIG-0.27  OA
ATOM     41 H    TYR P   8      82.894  -2.641  59.912  1.00 59.31 LIG 0.16  HD
BRANCH 39 42
ATOM     42  CA  VAL P   7      83.792  -5.024  59.644  1.00 68.90 LIG 0.18  C 
BRANCH 42 43
ATOM     43  N   VAL P   7      83.645  -6.472  59.700  1.00 69.26 LIG-0.34  N 
ATOM     44  C   LEU P   6      83.804  -7.171  60.820  1.00 74.59 LIG 0.26  C 
ATOM     45 O    LEU P   6      84.051  -6.641  61.907  1.00 73.78 LIG-0.27  OA
ATOM     46 H    VAL P   7      83.445  -6.831  58.945  1.00 69.26 LIG 0.16  HD
BRANCH 44 47
ATOM     47  CA  LEU P   6      83.640  -8.687  60.684  1.00 78.06 LIG 0.40  C 
ATOM     48  N   LEU P   6      82.989  -9.240  61.865  1.00 74.40 LIG 0.61  N 
BRANCH 47 49
ATOM     49  CB  LEU P   6      82.852  -9.051  59.419  1.00 78.52 LIG 0.06  C 
BRANCH 49 50
ATOM     50  CG  LEU P   6      81.321  -8.983  59.396  1.00 77.43 LIG-0.02  C 
ATOM     51  CD2 LEU P   6      80.767  -8.933  57.978  1.00 73.93 LIG 0.01  C 
ATOM     52  CD1 LEU P   6      80.888  -7.776  60.201  1.00 75.78 LIG 0.01  C 
ENDBRANCH 49 50
ENDBRANCH 47 49
ENDBRANCH 44 47
ENDBRANCH 42 43
BRANCH 42 53
ATOM     53  CB  VAL P   7      84.908  -4.618  58.666  1.00 67.45 LIG 0.01  C 
ATOM     54  CG2 VAL P   7      86.045  -5.623  58.720  1.00 67.18 LIG 0.01  C 
ATOM     55  CG1 VAL P   7      85.416  -3.227  58.988  1.00 63.58 LIG 0.01  C 
ENDBRANCH 42 53
ENDBRANCH 39 42
ENDBRANCH 1 38
TORSDOF 20
ENDMDL
MODEL 13
USER: ADFR SOLUTION from run 167
USER: SCORE 19.849751 LL:  -5.063 LR: -15.668 RR:   0.000 FEB:  -9.702
USER: RMSD 4.013784
USER: SEED 166
USER: STATUS no improvement in best in 7 clusters for 5 generations
USER: GENES 22
USER: genes 0 Translation |==|  0.40328 0.50507 0.40534
USER: genes 1 Rotation |==|  0.40128 0.76391 0.58560 0.90408
USER: genes 2 Torsion [N]-CA--C-[N] |==|  0.04439
USER: genes 3 Torsion [C]-N--CA-[CB] |==|  0.51667
USER: genes 4 Torsion [N]-CA--CB-[CG] |==|  0.52269
USER: genes 5 Torsion [CA]-CB--CG-[CD] |==|  0.12529
USER: genes 6 Torsion [CB]-CG--CD-[OE1] |==|  0.08608
USER: genes 7 Torsion [N]-CA--C-[N] |==|  0.28463
USER: genes 8 Torsion [C]-N--CA-[C] |==|  0.57366
USER: genes 9 Torsion [N]-CA--C-[O] |==|  0.47166
USER: genes 10 Torsion [N]-CA--CB-[CG] |==|  0.23425
USER: genes 11 Torsion [CA]-CB--CG-[CD1] |==|  0.36169
USER: genes 12 Torsion [C]-CA--CB-[CG] |==|  0.19712
USER: genes 13 Torsion [CA]-CB--CG-[CD1] |==|  0.61643
USER: genes 14 Torsion [CE1]-CZ--OH-[HH] |==|  0.63641
USER: genes 15 Torsion [C]-CA--N-[C] |==|  0.68789
USER: genes 16 Torsion [N]-C--CA-[N] |==|  0.36417
USER: genes 17 Torsion [C]-CA--N-[C] |==|  0.81698
USER: genes 18 Torsion [N]-C--CA-[N] |==|  0.32898
USER: genes 19 Torsion [C]-CA--CB-[CG] |==|  0.09579
USER: genes 20 Torsion [CA]-CB--CG-[CD2] |==|  0.74264
USER: genes 21 Torsion [C]-CA--CB-[CG2] |==|  0.35645
ROOT
ATOM      1  CA  TYR P   8      80.373  -2.053  59.036  1.00 57.99 LIG 0.18  C 
ENDROOT
BRANCH 1 2
ATOM      2  C   TYR P   8      79.794  -0.680  59.344  1.00 56.68 LIG 0.24  C 
ATOM      3  N   GLN P   9      79.633   0.141  58.311  1.00 57.67 LIG-0.35  N 
ATOM      4 H    GLN P   9      79.889  -0.042  57.510  1.00 57.67 LIG 0.16  HD
ATOM      5 O    TYR P   8      79.498  -0.375  60.504  1.00 54.26 LIG-0.27  OA
BRANCH 3 6
ATOM      6  CA  GLN P   9      78.997   1.444  58.453  1.00 54.86 LIG 0.18  C 
BRANCH 6 7
ATOM      7  CB  GLN P   9      78.809   2.114  57.094  1.00 52.41 LIG 0.04  C 
BRANCH 7 8
ATOM      8  CG  GLN P   9      78.333   3.553  57.180  1.00 53.63 LIG 0.10  C 
BRANCH 8 9
ATOM      9  CD  GLN P   9      79.091   4.346  58.220  1.00 56.56 LIG 0.21  C 
ATOM     10 OE1  GLN P   9      80.266   4.085  58.476  1.00 59.67 LIG-0.27  OA
ATOM     11  NE2 GLN P   9      78.423   5.322  58.828  1.00 58.55 LIG-0.37  N 
ATOM     12 22HE GLN P   9      78.812   5.801  59.428  1.00 58.55 LIG 0.16  HD
ATOM     13 21HE GLN P   9      77.603   5.474  58.623  1.00 58.55 LIG 0.16  HD
ENDBRANCH 8 9
ENDBRANCH 7 8
ENDBRANCH 6 7
BRANCH 6 14
ATOM     14  C   GLN P   9      77.657   1.264  59.154  1.00 54.72 LIG 0.24  C 
ATOM     15 O    GLN P   9      76.681   0.826  58.534  1.00 59.60 LIG-0.27  OA
ATOM     16  N   PHE P  10      77.612   1.588  60.441  1.00 49.02 LIG-0.34  N 
ATOM     17 H    PHE P  10      78.292   1.847  60.900  1.00 49.02 LIG 0.16  HD
BRANCH 16 18
ATOM     18  CA  PHE P  10      76.363   1.524  61.187  1.00 50.33 LIG 0.19  C 
BRANCH 18 19
ATOM     19  C   PHE P  10      76.362   2.494  62.362  1.00 49.91 LIG 0.20  C 
ATOM     20 O    PHE P  10      75.324   2.712  62.990  1.00 45.93 LIG-0.65  OA
ATOM     21 OXT  PHE P  10      77.391   3.083  62.698  1.00 46.36 LIG-0.65  OA
ENDBRANCH 18 19
BRANCH 18 22
ATOM     22  CB  PHE P  10      76.092   0.097  61.671  1.00 51.88 LIG 0.07  C 
BRANCH 22 23
ATOM     23  CG  PHE P  10      76.775  -0.259  62.966  1.00 51.17 LIG-0.06  A 
ATOM     24  CD1 PHE P  10      76.062  -0.836  64.004  1.00 49.53 LIG 0.01  A 
ATOM     25  CE1 PHE P  10      76.682  -1.150  65.197  1.00 54.45 LIG 0.00  A 
ATOM     26  CZ  PHE P  10      78.023  -0.874  65.371  1.00 54.40 LIG 0.00  A 
ATOM     27  CE2 PHE P  10      78.743  -0.294  64.349  1.00 52.97 LIG 0.00  A 
ATOM     28  CD2 PHE P  10      78.119   0.018  63.156  1.00 50.02 LIG 0.01  A 
ENDBRANCH 22 23
ENDBRANCH 18 22
ENDBRANCH 16 18
ENDBRANCH 6 14
ENDBRANCH 3 6
ENDBRANCH 1 2
BRANCH 1 29
ATOM     29  CB  TYR P   8      81.401  -2.438  60.099  1.00 54.61 LIG 0.07  C 
BRANCH 29 30
ATOM     30  CG  TYR P   8      80.816  -2.761  61.453  1.00 66.64 LIG-0.06  A 
ATOM     31  CD1 TYR P   8      81.422  -2.306  62.617  1.00 68.29 LIG 0.01  A 
ATOM     32  CE1 TYR P   8      80.895  -2.602  63.857  1.00 71.89 LIG 0.04  A 
ATOM     33  CZ  TYR P   8      79.750  -3.366  63.944  1.00 71.50 LIG 0.07  A 
ATOM     34  CE2 TYR P   8      79.132  -3.833  62.803  1.00 69.11 LIG 0.04  A 
ATOM     35  CD2 TYR P   8      79.667  -3.532  61.568  1.00 65.21 LIG 0.01  A 
BRANCH 33 36
ATOM     36 OH   TYR P   8      79.222  -3.664  65.178  1.00 83.55 LIG-0.36  OA
ATOM     37 HH   TYR P   8      79.066  -4.489  65.224  1.00 83.55 LIG 0.22  HD
ENDBRANCH 33 36
ENDBRANCH 29 30
ENDBRANCH 1 29
BRANCH 1 38
ATOM     38  N   TYR P   8      80.973  -2.021  57.710  1.00 59.31 LIG-0.35  N 
ATOM     39  C   VAL P   7      80.481  -2.700  56.678  1.00 65.10 LIG 0.24  C 
ATOM     40 O    VAL P   7      79.516  -3.469  56.775  1.00 66.40 LIG-0.27  OA
ATOM     41 H    TYR P   8      81.673  -1.523  57.657  1.00 59.31 LIG 0.16  HD
BRANCH 39 42
ATOM     42  CA  VAL P   7      81.175  -2.489  55.339  1.00 68.90 LIG 0.18  C 
BRANCH 42 43
ATOM     43  N   VAL P   7      81.456  -3.789  54.744  1.00 69.26 LIG-0.34  N 
ATOM     44  C   LEU P   6      82.312  -4.657  55.276  1.00 74.59 LIG 0.26  C 
ATOM     45 O    LEU P   6      82.904  -4.443  56.337  1.00 73.78 LIG-0.27  OA
ATOM     46 H    VAL P   7      81.019  -3.942  54.020  1.00 69.26 LIG 0.16  HD
BRANCH 44 47
ATOM     47  CA  LEU P   6      82.503  -5.961  54.496  1.00 78.06 LIG 0.40  C 
ATOM     48  N   LEU P   6      83.888  -6.099  54.062  1.00 74.40 LIG 0.61  N 
BRANCH 47 49
ATOM     49  CB  LEU P   6      82.081  -7.177  55.331  1.00 78.52 LIG 0.06  C 
BRANCH 49 50
ATOM     50  CG  LEU P   6      80.910  -7.090  56.316  1.00 77.43 LIG-0.02  C 
ATOM     51  CD2 LEU P   6      81.366  -6.727  57.724  1.00 73.93 LIG 0.01  C 
ATOM     52  CD1 LEU P   6      80.176  -8.413  56.297  1.00 75.78 LIG 0.01  C 
ENDBRANCH 49 50
ENDBRANCH 47 49
ENDBRANCH 44 47
ENDBRANCH 42 43
BRANCH 42 53
ATOM     53  CB  VAL P   7      80.317  -1.625  54.400  1.00 67.45 LIG 0.01  C 
ATOM     54  CG2 VAL P   7      81.136  -0.469  53.854  1.00 67.18 LIG 0.01  C 
ATOM     55  CG1 VAL P   7      79.092  -1.107  55.127  1.00 63.58 LIG 0.01  C 
ENDBRANCH 42 53
ENDBRANCH 39 42
ENDBRANCH 1 38
TORSDOF 20
ENDMDL
MODEL 14
USER: ADFR SOLUTION from run 36
USER: SCORE 18.087406 LL:  -4.438 LR: -15.663 RR:   0.000 FEB:  -9.697
USER: RMSD 4.010578
USER: SEED 35
USER: STATUS no improvement in best in 8 clusters for 5 generations
USER: GENES 22
USER: genes 0 Translation |==|  0.45020 0.49008 0.42884
USER: genes 1 Rotation |==|  0.52317 0.55202 0.53856 0.99525
USER: genes 2 Torsion [N]-CA--C-[N] |==|  0.28794
USER: genes 3 Torsion [C]-N--CA-[CB] |==|  0.45556
USER: genes 4 Torsion [N]-CA--CB-[CG] |==|  0.06366
USER: genes 5 Torsion [CA]-CB--CG-[CD] |==|  0.20795
USER: genes 6 Torsion [CB]-CG--CD-[OE1] |==|  0.05810
USER: genes 7 Torsion [N]-CA--C-[N] |==|  0.39336
USER: genes 8 Torsion [C]-N--CA-[C] |==|  0.64404
USER: genes 9 Torsion [N]-CA--C-[O] |==|  0.46563
USER: genes 10 Torsion [N]-CA--CB-[CG] |==|  0.86538
USER: genes 11 Torsion [CA]-CB--CG-[CD1] |==|  0.85190
USER: genes 12 Torsion [C]-CA--CB-[CG] |==|  0.33668
USER: genes 13 Torsion [CA]-CB--CG-[CD1] |==|  0.54582
USER: genes 14 Torsion [CE1]-CZ--OH-[HH] |==|  0.40183
USER: genes 15 Torsion [C]-CA--N-[C] |==|  0.77435
USER: genes 16 Torsion [N]-C--CA-[N] |==|  0.66402
USER: genes 17 Torsion [C]-CA--N-[C] |==|  0.66647
USER: genes 18 Torsion [N]-C--CA-[N] |==|  0.07585
USER: genes 19 Torsion [C]-CA--CB-[CG] |==|  0.77976
USER: genes 20 Torsion [CA]-CB--CG-[CD2] |==|  0.56570
USER: genes 21 Torsion [C]-CA--CB-[CG2] |==|  0.61233
ROOT
ATOM      1  CA  TYR P   8      81.429  -2.390  59.459  1.00 57.99 LIG 0.18  C 
ENDROOT
BRANCH 1 2
ATOM      2  C   TYR P   8      80.900  -1.082  60.030  1.00 56.68 LIG 0.24  C 
ATOM      3  N   GLN P   9      80.177  -0.327  59.209  1.00 57.67 LIG-0.35  N 
ATOM      4 H    GLN P   9      80.049  -0.510  58.379  1.00 57.67 LIG 0.16  HD
ATOM      5 O    TYR P   8      81.146  -0.769  61.199  1.00 54.26 LIG-0.27  OA
BRANCH 3 6
ATOM      6  CA  GLN P   9      79.530   0.898  59.659  1.00 54.86 LIG 0.18  C 
BRANCH 6 7
ATOM      7  CB  GLN P   9      79.109   1.764  58.473  1.00 52.41 LIG 0.04  C 
BRANCH 7 8
ATOM      8  CG  GLN P   9      78.934   0.989  57.179  1.00 53.63 LIG 0.10  C 
BRANCH 8 9
ATOM      9  CD  GLN P   9      77.661   0.173  57.167  1.00 56.56 LIG 0.21  C 
ATOM     10 OE1  GLN P   9      76.728   0.454  57.920  1.00 59.67 LIG-0.27  OA
ATOM     11  NE2 GLN P   9      77.613  -0.843  56.312  1.00 58.55 LIG-0.37  N 
ATOM     12 22HE GLN P   9      76.909  -1.337  56.270  1.00 58.55 LIG 0.16  HD
ATOM     13 21HE GLN P   9      78.284  -1.008  55.803  1.00 58.55 LIG 0.16  HD
ENDBRANCH 8 9
ENDBRANCH 7 8
ENDBRANCH 6 7
BRANCH 6 14
ATOM     14  C   GLN P   9      78.322   0.533  60.512  1.00 54.72 LIG 0.24  C 
ATOM     15 O    GLN P   9      77.618  -0.439  60.215  1.00 59.60 LIG-0.27  OA
ATOM     16  N   PHE P  10      78.092   1.298  61.573  1.00 49.02 LIG-0.34  N 
ATOM     17 H    PHE P  10      78.599   1.946  61.823  1.00 49.02 LIG 0.16  HD
BRANCH 16 18
ATOM     18  CA  PHE P  10      76.923   1.081  62.414  1.00 50.33 LIG 0.19  C 
BRANCH 18 19
ATOM     19  C   PHE P  10      76.131   2.367  62.615  1.00 49.91 LIG 0.20  C 
ATOM     20 O    PHE P  10      74.999   2.333  63.103  1.00 45.93 LIG-0.65  OA
ATOM     21 OXT  PHE P  10      76.600   3.458  62.285  1.00 46.36 LIG-0.65  OA
ENDBRANCH 18 19
BRANCH 18 22
ATOM     22  CB  PHE P  10      77.328   0.486  63.765  1.00 51.88 LIG 0.07  C 
BRANCH 22 23
ATOM     23  CG  PHE P  10      78.263  -0.691  63.670  1.00 51.17 LIG-0.06  A 
ATOM     24  CD1 PHE P  10      77.945  -1.782  62.879  1.00 49.53 LIG 0.01  A 
ATOM     25  CE1 PHE P  10      78.794  -2.868  62.801  1.00 54.45 LIG 0.00  A 
ATOM     26  CZ  PHE P  10      79.966  -2.882  63.530  1.00 54.40 LIG 0.00  A 
ATOM     27  CE2 PHE P  10      80.292  -1.805  64.326  1.00 52.97 LIG 0.00  A 
ATOM     28  CD2 PHE P  10      79.440  -0.720  64.401  1.00 50.02 LIG 0.01  A 
ENDBRANCH 22 23
ENDBRANCH 18 22
ENDBRANCH 16 18
ENDBRANCH 6 14
ENDBRANCH 3 6
ENDBRANCH 1 2
BRANCH 1 29
ATOM     29  CB  TYR P   8      81.193  -3.527  60.452  1.00 54.61 LIG 0.07  C 
BRANCH 29 30
ATOM     30  CG  TYR P   8      80.352  -4.663  59.920  1.00 66.64 LIG-0.06  A 
ATOM     31  CD1 TYR P   8      79.774  -5.585  60.783  1.00 68.29 LIG 0.01  A 
ATOM     32  CE1 TYR P   8      79.010  -6.628  60.303  1.00 71.89 LIG 0.04  A 
ATOM     33  CZ  TYR P   8      78.819  -6.762  58.943  1.00 71.50 LIG 0.07  A 
ATOM     34  CE2 TYR P   8      79.386  -5.862  58.066  1.00 69.11 LIG 0.04  A 
ATOM     35  CD2 TYR P   8      80.150  -4.823  58.556  1.00 65.21 LIG 0.01  A 
BRANCH 33 36
ATOM     36 OH   TYR P   8      78.058  -7.800  58.460  1.00 83.55 LIG-0.36  OA
ATOM     37 HH   TYR P   8      77.630  -7.543  57.785  1.00 83.55 LIG 0.22  HD
ENDBRANCH 33 36
ENDBRANCH 29 30
ENDBRANCH 1 29
BRANCH 1 38
ATOM     38  N   TYR P   8      82.846  -2.233  59.165  1.00 59.31 LIG-0.35  N 
ATOM     39  C   VAL P   7      83.293  -1.651  58.056  1.00 65.10 LIG 0.24  C 
ATOM     40 O    VAL P   7      82.545  -1.258  57.151  1.00 66.40 LIG-0.27  OA
ATOM     41 H    TYR P   8      83.365  -2.551  59.774  1.00 59.31 LIG 0.16  HD
BRANCH 39 42
ATOM     42  CA  VAL P   7      84.803  -1.487  57.942  1.00 68.90 LIG 0.18  C 
BRANCH 42 43
ATOM     43  N   VAL P   7      85.114  -0.071  57.798  1.00 69.26 LIG-0.34  N 
ATOM     44  C   LEU P   6      85.750   0.425  56.740  1.00 74.59 LIG 0.26  C 
ATOM     45 O    LEU P   6      86.090  -0.272  55.781  1.00 73.78 LIG-0.27  OA
ATOM     46 H    VAL P   7      84.848   0.412  58.458  1.00 69.26 LIG 0.16  HD
BRANCH 44 47
ATOM     47  CA  LEU P   6      86.017   1.932  56.775  1.00 78.06 LIG 0.40  C 
ATOM     48  N   LEU P   6      86.114   2.403  58.152  1.00 74.40 LIG 0.61  N 
BRANCH 47 49
ATOM     49  CB  LEU P   6      87.289   2.291  55.996  1.00 78.52 LIG 0.06  C 
BRANCH 49 50
ATOM     50  CG  LEU P   6      88.676   2.090  56.615  1.00 77.43 LIG-0.02  C 
ATOM     51  CD2 LEU P   6      89.727   2.994  55.980  1.00 73.93 LIG 0.01  C 
ATOM     52  CD1 LEU P   6      89.050   0.630  56.480  1.00 75.78 LIG 0.01  C 
ENDBRANCH 49 50
ENDBRANCH 47 49
ENDBRANCH 44 47
ENDBRANCH 42 43
BRANCH 42 53
ATOM     53  CB  VAL P   7      85.519  -2.090  59.162  1.00 67.45 LIG 0.01  C 
ATOM     54  CG2 VAL P   7      86.666  -1.194  59.594  1.00 67.18 LIG 0.01  C 
ATOM     55  CG1 VAL P   7      86.028  -3.482  58.843  1.00 63.58 LIG 0.01  C 
ENDBRANCH 42 53
ENDBRANCH 39 42
ENDBRANCH 1 38
TORSDOF 20
ENDMDL
MODEL 15
USER: ADFR SOLUTION from run 137
USER: SCORE 19.082612 LL:  -5.195 LR: -15.652 RR:   0.000 FEB:  -9.686
USER: RMSD 2.348862
USER: SEED 136
USER: STATUS no improvement in best in 12 clusters for 5 generations
USER: GENES 22
USER: genes 0 Translation |==|  0.43147 0.50366 0.43054
USER: genes 1 Rotation |==|  0.51659 0.48287 0.50648 0.99939
USER: genes 2 Torsion [N]-CA--C-[N] |==|  0.38626
USER: genes 3 Torsion [C]-N--CA-[CB] |==|  0.41427
USER: genes 4 Torsion [N]-CA--CB-[CG] |==|  0.52748
USER: genes 5 Torsion [CA]-CB--CG-[CD] |==|  0.15995
USER: genes 6 Torsion [CB]-CG--CD-[OE1] |==|  0.02623
USER: genes 7 Torsion [N]-CA--C-[N] |==|  0.27466
USER: genes 8 Torsion [C]-N--CA-[C] |==|  0.76394
USER: genes 9 Torsion [N]-CA--C-[O] |==|  0.44170
USER: genes 10 Torsion [N]-CA--CB-[CG] |==|  0.85654
USER: genes 11 Torsion [CA]-CB--CG-[CD1] |==|  0.69485
USER: genes 12 Torsion [C]-CA--CB-[CG] |==|  0.40114
USER: genes 13 Torsion [CA]-CB--CG-[CD1] |==|  0.48267
USER: genes 14 Torsion [CE1]-CZ--OH-[HH] |==|  0.29992
USER: genes 15 Torsion [C]-CA--N-[C] |==|  0.83889
USER: genes 16 Torsion [N]-C--CA-[N] |==|  0.12740
USER: genes 17 Torsion [C]-CA--N-[C] |==|  0.15389
USER: genes 18 Torsion [N]-C--CA-[N] |==|  0.78756
USER: genes 19 Torsion [C]-CA--CB-[CG] |==|  0.19234
USER: genes 20 Torsion [CA]-CB--CG-[CD2] |==|  0.65242
USER: genes 21 Torsion [C]-CA--CB-[CG2] |==|  0.55382
ROOT
ATOM      1  CA  TYR P   8      81.007  -2.085  59.490  1.00 57.99 LIG 0.18  C 
ENDROOT
BRANCH 1 2
ATOM      2  C   TYR P   8      80.533  -0.697  59.897  1.00 56.68 LIG 0.24  C 
ATOM      3  N   GLN P   9      79.555  -0.167  59.169  1.00 57.67 LIG-0.35  N 
ATOM      4 H    GLN P   9      79.230  -0.537  58.463  1.00 57.67 LIG 0.16  HD
ATOM      5 O    TYR P   8      81.049  -0.120  60.860  1.00 54.26 LIG-0.27  OA
BRANCH 3 6
ATOM      6  CA  GLN P   9      78.942   1.109  59.512  1.00 54.86 LIG 0.18  C 
BRANCH 6 7
ATOM      7  CB  GLN P   9      78.466   1.844  58.261  1.00 52.41 LIG 0.04  C 
BRANCH 7 8
ATOM      8  CG  GLN P   9      78.035   3.277  58.518  1.00 53.63 LIG 0.10  C 
BRANCH 8 9
ATOM      9  CD  GLN P   9      79.137   4.104  59.140  1.00 56.56 LIG 0.21  C 
ATOM     10 OE1  GLN P   9      80.283   3.663  59.225  1.00 59.67 LIG-0.27  OA
ATOM     11  NE2 GLN P   9      78.799   5.312  59.579  1.00 58.55 LIG-0.37  N 
ATOM     12 22HE GLN P   9      79.392   5.820  59.941  1.00 58.55 LIG 0.16  HD
ATOM     13 21HE GLN P   9      77.988   5.586  59.503  1.00 58.55 LIG 0.16  HD
ENDBRANCH 8 9
ENDBRANCH 7 8
ENDBRANCH 6 7
BRANCH 6 14
ATOM     14  C   GLN P   9      77.779   0.856  60.462  1.00 54.72 LIG 0.24  C 
ATOM     15 O    GLN P   9      76.683   0.488  60.024  1.00 59.60 LIG-0.27  OA
ATOM     16  N   PHE P  10      78.018   1.040  61.756  1.00 49.02 LIG-0.34  N 
ATOM     17 H    PHE P  10      78.787   1.248  62.082  1.00 49.02 LIG 0.16  HD
BRANCH 16 18
ATOM     18  CA  PHE P  10      76.956   0.898  62.742  1.00 50.33 LIG 0.19  C 
BRANCH 18 19
ATOM     19  C   PHE P  10      76.157   2.186  62.894  1.00 49.91 LIG 0.20  C 
ATOM     20 O    PHE P  10      75.018   2.161  63.367  1.00 45.93 LIG-0.65  OA
ATOM     21 OXT  PHE P  10      76.626   3.269  62.539  1.00 46.36 LIG-0.65  OA
ENDBRANCH 18 19
BRANCH 18 22
ATOM     22  CB  PHE P  10      77.526   0.459  64.094  1.00 51.88 LIG 0.07  C 
BRANCH 22 23
ATOM     23  CG  PHE P  10      78.417  -0.752  64.029  1.00 51.17 LIG-0.06  A 
ATOM     24  CD1 PHE P  10      78.002  -1.963  64.558  1.00 49.53 LIG 0.01  A 
ATOM     25  CE1 PHE P  10      78.823  -3.072  64.512  1.00 54.45 LIG 0.00  A 
ATOM     26  CZ  PHE P  10      80.081  -2.977  63.949  1.00 54.40 LIG 0.00  A 
ATOM     27  CE2 PHE P  10      80.509  -1.777  63.425  1.00 52.97 LIG 0.00  A 
ATOM     28  CD2 PHE P  10      79.684  -0.669  63.473  1.00 50.02 LIG 0.01  A 
ENDBRANCH 22 23
ENDBRANCH 18 22
ENDBRANCH 16 18
ENDBRANCH 6 14
ENDBRANCH 3 6
ENDBRANCH 1 2
BRANCH 1 29
ATOM     29  CB  TYR P   8      80.358  -3.142  60.382  1.00 54.61 LIG 0.07  C 
BRANCH 29 30
ATOM     30  CG  TYR P   8      80.024  -4.437  59.682  1.00 66.64 LIG-0.06  A 
ATOM     31  CD1 TYR P   8      79.550  -5.530  60.396  1.00 68.29 LIG 0.01  A 
ATOM     32  CE1 TYR P   8      79.249  -6.718  59.763  1.00 71.89 LIG 0.04  A 
ATOM     33  CZ  TYR P   8      79.424  -6.825  58.399  1.00 71.50 LIG 0.07  A 
ATOM     34  CE2 TYR P   8      79.897  -5.755  57.669  1.00 69.11 LIG 0.04  A 
ATOM     35  CD2 TYR P   8      80.197  -4.572  58.311  1.00 65.21 LIG 0.01  A 
BRANCH 33 36
ATOM     36 OH   TYR P   8      79.125  -8.007  57.764  1.00 83.55 LIG-0.36  OA
ATOM     37 HH   TYR P   8      78.424  -7.912  57.311  1.00 83.55 LIG 0.22  HD
ENDBRANCH 33 36
ENDBRANCH 29 30
ENDBRANCH 1 29
BRANCH 1 38
ATOM     38  N   TYR P   8      82.459  -2.130  59.589  1.00 59.31 LIG-0.35  N 
ATOM     39  C   VAL P   7      83.255  -1.301  58.920  1.00 65.10 LIG 0.24  C 
ATOM     40 O    VAL P   7      82.832  -0.471  58.105  1.00 66.40 LIG-0.27  OA
ATOM     41 H    TYR P   8      82.752  -2.741  60.119  1.00 59.31 LIG 0.16  HD
BRANCH 39 42
ATOM     42  CA  VAL P   7      84.746  -1.423  59.202  1.00 68.90 LIG 0.18  C 
BRANCH 42 43
ATOM     43  N   VAL P   7      85.115  -2.833  59.190  1.00 69.26 LIG-0.34  N 
ATOM     44  C   LEU P   6      84.871  -3.634  58.157  1.00 74.59 LIG 0.26  C 
ATOM     45 O    LEU P   6      84.349  -3.235  57.113  1.00 73.78 LIG-0.27  OA
ATOM     46 H    VAL P   7      85.504  -3.096  59.910  1.00 69.26 LIG 0.16  HD
BRANCH 44 47
ATOM     47  CA  LEU P   6      85.302  -5.092  58.334  1.00 78.06 LIG 0.40  C 
ATOM     48  N   LEU P   6      86.746  -5.222  58.180  1.00 74.40 LIG 0.61  N 
BRANCH 47 49
ATOM     49  CB  LEU P   6      84.859  -5.643  59.696  1.00 78.52 LIG 0.06  C 
BRANCH 49 50
ATOM     50  CG  LEU P   6      83.378  -5.889  60.004  1.00 77.43 LIG-0.02  C 
ATOM     51  CD2 LEU P   6      82.924  -5.167  61.267  1.00 73.93 LIG 0.01  C 
ATOM     52  CD1 LEU P   6      83.158  -7.383  60.112  1.00 75.78 LIG 0.01  C 
ENDBRANCH 49 50
ENDBRANCH 47 49
ENDBRANCH 44 47
ENDBRANCH 42 43
BRANCH 42 53
ATOM     53  CB  VAL P   7      85.571  -0.627  58.177  1.00 67.45 LIG 0.01  C 
ATOM     54  CG2 VAL P   7      87.007  -1.119  58.161  1.00 67.18 LIG 0.01  C 
ATOM     55  CG1 VAL P   7      85.525   0.855  58.495  1.00 63.58 LIG 0.01  C 
ENDBRANCH 42 53
ENDBRANCH 39 42
ENDBRANCH 1 38
TORSDOF 20
ENDMDL
MODEL 16
USER: ADFR SOLUTION from run 70
USER: SCORE 18.182056 LL:  -4.465 LR: -15.544 RR:   0.000 FEB:  -9.578
USER: RMSD 2.512832
USER: SEED 69
USER: STATUS no improvement in best in 25 clusters for 5 generations
USER: GENES 22
USER: genes 0 Translation |==|  0.44701 0.51962 0.37587
USER: genes 1 Rotation |==|  0.56205 0.40042 0.47571 0.98543
USER: genes 2 Torsion [N]-CA--C-[N] |==|  0.43300
USER: genes 3 Torsion [C]-N--CA-[CB] |==|  0.38008
USER: genes 4 Torsion [N]-CA--CB-[CG] |==|  0.50919
USER: genes 5 Torsion [CA]-CB--CG-[CD] |==|  0.15020
USER: genes 6 Torsion [CB]-CG--CD-[OE1] |==|  0.08853
USER: genes 7 Torsion [N]-CA--C-[N] |==|  0.32767
USER: genes 8 Torsion [C]-N--CA-[C] |==|  0.57363
USER: genes 9 Torsion [N]-CA--C-[O] |==|  0.48905
USER: genes 10 Torsion [N]-CA--CB-[CG] |==|  0.21937
USER: genes 11 Torsion [CA]-CB--CG-[CD1] |==|  0.83329
USER: genes 12 Torsion [C]-CA--CB-[CG] |==|  0.80817
USER: genes 13 Torsion [CA]-CB--CG-[CD1] |==|  0.51887
USER: genes 14 Torsion [CE1]-CZ--OH-[HH] |==|  0.94905
USER: genes 15 Torsion [C]-CA--N-[C] |==|  0.63142
USER: genes 16 Torsion [N]-C--CA-[N] |==|  0.36111
USER: genes 17 Torsion [C]-CA--N-[C] |==|  0.80798
USER: genes 18 Torsion [N]-C--CA-[N] |==|  0.13666
USER: genes 19 Torsion [C]-CA--CB-[CG] |==|  0.83926
USER: genes 20 Torsion [CA]-CB--CG-[CD2] |==|  0.66757
USER: genes 21 Torsion [C]-CA--CB-[CG2] |==|  0.42537
ROOT
ATOM      1  CA  TYR P   8      81.357  -1.726  58.506  1.00 57.99 LIG 0.18  C 
ENDROOT
BRANCH 1 2
ATOM      2  C   TYR P   8      80.906  -0.369  59.028  1.00 56.68 LIG 0.24  C 
ATOM      3  N   GLN P   9      79.996   0.273  58.303  1.00 57.67 LIG-0.35  N 
ATOM      4 H    GLN P   9      79.703  -0.008  57.545  1.00 57.67 LIG 0.16  HD
ATOM      5 O    TYR P   8      81.380   0.083  60.076  1.00 54.26 LIG-0.27  OA
BRANCH 3 6
ATOM      6  CA  GLN P   9      79.407   1.531  58.743  1.00 54.86 LIG 0.18  C 
BRANCH 6 7
ATOM      7  CB  GLN P   9      79.317   2.527  57.589  1.00 52.41 LIG 0.04  C 
BRANCH 7 8
ATOM      8  CG  GLN P   9      78.784   3.890  57.996  1.00 53.63 LIG 0.10  C 
BRANCH 8 9
ATOM      9  CD  GLN P   9      79.565   4.492  59.142  1.00 56.56 LIG 0.21  C 
ATOM     10 OE1  GLN P   9      80.767   4.261  59.273  1.00 59.67 LIG-0.27  OA
ATOM     11  NE2 GLN P   9      78.888   5.269  59.981  1.00 58.55 LIG-0.37  N 
ATOM     12 22HE GLN P   9      79.289   5.633  60.649  1.00 58.55 LIG 0.16  HD
ATOM     13 21HE GLN P   9      78.049   5.407  59.857  1.00 58.55 LIG 0.16  HD
ENDBRANCH 8 9
ENDBRANCH 7 8
ENDBRANCH 6 7
BRANCH 6 14
ATOM     14  C   GLN P   9      78.026   1.252  59.322  1.00 54.72 LIG 0.24  C 
ATOM     15 O    GLN P   9      77.140   0.759  58.614  1.00 59.60 LIG-0.27  OA
ATOM     16  N   PHE P  10      77.847   1.554  60.603  1.00 49.02 LIG-0.34  N 
ATOM     17 H    PHE P  10      78.466   1.851  61.122  1.00 49.02 LIG 0.16  HD
BRANCH 16 18
ATOM     18  CA  PHE P  10      76.545   1.397  61.235  1.00 50.33 LIG 0.19  C 
BRANCH 18 19
ATOM     19  C   PHE P  10      76.377   2.348  62.414  1.00 49.91 LIG 0.20  C 
ATOM     20 O    PHE P  10      75.306   2.402  63.023  1.00 45.93 LIG-0.65  OA
ATOM     21 OXT  PHE P  10      77.299   3.083  62.772  1.00 46.36 LIG-0.65  OA
ENDBRANCH 18 19
BRANCH 18 22
ATOM     22  CB  PHE P  10      76.330  -0.052  61.682  1.00 51.88 LIG 0.07  C 
BRANCH 22 23
ATOM     23  CG  PHE P  10      77.026  -0.416  62.967  1.00 51.17 LIG-0.06  A 
ATOM     24  CD1 PHE P  10      78.404  -0.321  63.073  1.00 49.53 LIG 0.01  A 
ATOM     25  CE1 PHE P  10      79.046  -0.667  64.246  1.00 54.45 LIG 0.00  A 
ATOM     26  CZ  PHE P  10      78.316  -1.131  65.322  1.00 54.40 LIG 0.00  A 
ATOM     27  CE2 PHE P  10      76.945  -1.236  65.227  1.00 52.97 LIG 0.00  A 
ATOM     28  CD2 PHE P  10      76.306  -0.888  64.052  1.00 50.02 LIG 0.01  A 
ENDBRANCH 22 23
ENDBRANCH 18 22
ENDBRANCH 16 18
ENDBRANCH 6 14
ENDBRANCH 3 6
ENDBRANCH 1 2
BRANCH 1 29
ATOM     29  CB  TYR P   8      80.354  -2.803  58.915  1.00 54.61 LIG 0.07  C 
BRANCH 29 30
ATOM     30  CG  TYR P   8      80.325  -3.107  60.394  1.00 66.64 LIG-0.06  A 
ATOM     31  CD1 TYR P   8      79.566  -4.159  60.890  1.00 68.29 LIG 0.01  A 
ATOM     32  CE1 TYR P   8      79.532  -4.438  62.240  1.00 71.89 LIG 0.04  A 
ATOM     33  CZ  TYR P   8      80.259  -3.658  63.114  1.00 71.50 LIG 0.07  A 
ATOM     34  CE2 TYR P   8      81.016  -2.605  62.647  1.00 69.11 LIG 0.04  A 
ATOM     35  CD2 TYR P   8      81.044  -2.334  61.295  1.00 65.21 LIG 0.01  A 
BRANCH 33 36
ATOM     36 OH   TYR P   8      80.226  -3.932  64.461  1.00 83.55 LIG-0.36  OA
ATOM     37 HH   TYR P   8      79.558  -4.411  64.633  1.00 83.55 LIG 0.22  HD
ENDBRANCH 33 36
ENDBRANCH 29 30
ENDBRANCH 1 29
BRANCH 1 38
ATOM     38  N   TYR P   8      82.683  -2.013  59.033  1.00 59.31 LIG-0.35  N 
ATOM     39  C   VAL P   7      83.683  -2.453  58.274  1.00 65.10 LIG 0.24  C 
ATOM     40 O    VAL P   7      83.549  -2.722  57.073  1.00 66.40 LIG-0.27  OA
ATOM     41 H    TYR P   8      82.759  -1.871  59.878  1.00 59.31 LIG 0.16  HD
BRANCH 39 42
ATOM     42  CA  VAL P   7      85.030  -2.621  58.963  1.00 68.90 LIG 0.18  C 
BRANCH 42 43
ATOM     43  N   VAL P   7      85.552  -3.947  58.661  1.00 69.26 LIG-0.34  N 
ATOM     44  C   LEU P   6      85.008  -5.063  59.139  1.00 74.59 LIG 0.26  C 
ATOM     45 O    LEU P   6      83.994  -5.062  59.842  1.00 73.78 LIG-0.27  OA
ATOM     46 H    VAL P   7      86.241  -3.941  58.148  1.00 69.26 LIG 0.16  HD
BRANCH 44 47
ATOM     47  CA  LEU P   6      85.709  -6.364  58.740  1.00 78.06 LIG 0.40  C 
ATOM     48  N   LEU P   6      87.144  -6.267  58.979  1.00 74.40 LIG 0.61  N 
BRANCH 47 49
ATOM     49  CB  LEU P   6      85.122  -7.566  59.492  1.00 78.52 LIG 0.06  C 
BRANCH 49 50
ATOM     50  CG  LEU P   6      85.113  -7.612  61.023  1.00 77.43 LIG-0.02  C 
ATOM     51  CD2 LEU P   6      85.899  -8.798  61.570  1.00 73.93 LIG 0.01  C 
ATOM     52  CD1 LEU P   6      83.673  -7.643  61.488  1.00 75.78 LIG 0.01  C 
ENDBRANCH 49 50
ENDBRANCH 47 49
ENDBRANCH 44 47
ENDBRANCH 42 43
BRANCH 42 53
ATOM     53  CB  VAL P   7      86.017  -1.525  58.524  1.00 67.45 LIG 0.01  C 
ATOM     54  CG2 VAL P   7      87.044  -1.276  59.614  1.00 67.18 LIG 0.01  C 
ATOM     55  CG1 VAL P   7      85.275  -0.245  58.194  1.00 63.58 LIG 0.01  C 
ENDBRANCH 42 53
ENDBRANCH 39 42
ENDBRANCH 1 38
TORSDOF 20
ENDMDL
MODEL 17
USER: ADFR SOLUTION from run 157
USER: SCORE 17.565571 LL:  -4.138 LR: -15.528 RR:   0.000 FEB:  -9.562
USER: RMSD 2.145757
USER: SEED 156
USER: STATUS no improvement in best in 9 clusters for 5 generations
USER: GENES 22
USER: genes 0 Translation |==|  0.43008 0.50011 0.43196
USER: genes 1 Rotation |==|  0.51312 0.50699 0.50843 0.99971
USER: genes 2 Torsion [N]-CA--C-[N] |==|  0.36865
USER: genes 3 Torsion [C]-N--CA-[CB] |==|  0.41442
USER: genes 4 Torsion [N]-CA--CB-[CG] |==|  0.98720
USER: genes 5 Torsion [CA]-CB--CG-[CD] |==|  0.22834
USER: genes 6 Torsion [CB]-CG--CD-[OE1] |==|  0.99902
USER: genes 7 Torsion [N]-CA--C-[N] |==|  0.27865
USER: genes 8 Torsion [C]-N--CA-[C] |==|  0.76529
USER: genes 9 Torsion [N]-CA--C-[O] |==|  0.93633
USER: genes 10 Torsion [N]-CA--CB-[CG] |==|  0.85767
USER: genes 11 Torsion [CA]-CB--CG-[CD1] |==|  0.20186
USER: genes 12 Torsion [C]-CA--CB-[CG] |==|  0.39431
USER: genes 13 Torsion [CA]-CB--CG-[CD1] |==|  0.49568
USER: genes 14 Torsion [CE1]-CZ--OH-[HH] |==|  0.37285
USER: genes 15 Torsion [C]-CA--N-[C] |==|  0.69451
USER: genes 16 Torsion [N]-C--CA-[N] |==|  0.38336
USER: genes 17 Torsion [C]-CA--N-[C] |==|  0.58430
USER: genes 18 Torsion [N]-C--CA-[N] |==|  0.26721
USER: genes 19 Torsion [C]-CA--CB-[CG] |==|  0.82435
USER: genes 20 Torsion [CA]-CB--CG-[CD2] |==|  0.75020
USER: genes 21 Torsion [C]-CA--CB-[CG2] |==|  0.36854
ROOT
ATOM      1  CA  TYR P   8      80.976  -2.165  59.515  1.00 57.99 LIG 0.18  C 
ENDROOT
BRANCH 1 2
ATOM      2  C   TYR P   8      80.527  -0.775  59.945  1.00 56.68 LIG 0.24  C 
ATOM      3  N   GLN P   9      79.564  -0.213  59.222  1.00 57.67 LIG-0.35  N 
ATOM      4 H    GLN P   9      79.235  -0.564  58.509  1.00 57.67 LIG 0.16  HD
ATOM      5 O    TYR P   8      81.050  -0.227  60.921  1.00 54.26 LIG-0.27  OA
BRANCH 3 6
ATOM      6  CA  GLN P   9      78.975   1.068  59.586  1.00 54.86 LIG 0.18  C 
BRANCH 6 7
ATOM      7  CB  GLN P   9      78.519   1.835  58.347  1.00 52.41 LIG 0.04  C 
BRANCH 7 8
ATOM      8  CG  GLN P   9      78.877   1.153  57.037  1.00 53.63 LIG 0.10  C 
BRANCH 8 9
ATOM      9  CD  GLN P   9      77.886   0.074  56.663  1.00 56.56 LIG 0.21  C 
ATOM     10 OE1  GLN P   9      76.924  -0.175  57.390  1.00 59.67 LIG-0.27  OA
ATOM     11  NE2 GLN P   9      78.113  -0.574  55.526  1.00 58.55 LIG-0.37  N 
ATOM     12 22HE GLN P   9      77.577  -1.197  55.271  1.00 58.55 LIG 0.16  HD
ATOM     13 21HE GLN P   9      78.796  -0.372  55.045  1.00 58.55 LIG 0.16  HD
ENDBRANCH 8 9
ENDBRANCH 7 8
ENDBRANCH 6 7
BRANCH 6 14
ATOM     14  C   GLN P   9      77.803   0.822  60.527  1.00 54.72 LIG 0.24  C 
ATOM     15 O    GLN P   9      76.709   0.458  60.080  1.00 59.60 LIG-0.27  OA
ATOM     16  N   PHE P  10      78.032   1.007  61.822  1.00 49.02 LIG-0.34  N 
ATOM     17 H    PHE P  10      78.799   1.212  62.154  1.00 49.02 LIG 0.16  HD
BRANCH 16 18
ATOM     18  CA  PHE P  10      76.962   0.871  62.800  1.00 50.33 LIG 0.19  C 
BRANCH 18 19
ATOM     19  C   PHE P  10      76.158   2.158  62.934  1.00 49.91 LIG 0.20  C 
ATOM     20 O    PHE P  10      76.656   3.240  62.615  1.00 45.93 LIG-0.65  OA
ATOM     21 OXT  PHE P  10      75.006   2.144  63.372  1.00 46.36 LIG-0.65  OA
ENDBRANCH 18 19
BRANCH 18 22
ATOM     22  CB  PHE P  10      77.520   0.443  64.160  1.00 51.88 LIG 0.07  C 
BRANCH 22 23
ATOM     23  CG  PHE P  10      78.421  -0.762  64.111  1.00 51.17 LIG-0.06  A 
ATOM     24  CD1 PHE P  10      79.697  -0.667  63.580  1.00 49.53 LIG 0.01  A 
ATOM     25  CE1 PHE P  10      80.520  -1.774  63.521  1.00 54.45 LIG 0.00  A 
ATOM     26  CZ  PHE P  10      80.068  -2.996  63.977  1.00 54.40 LIG 0.00  A 
ATOM     27  CE2 PHE P  10      78.798  -3.106  64.500  1.00 52.97 LIG 0.00  A 
ATOM     28  CD2 PHE P  10      77.977  -1.996  64.559  1.00 50.02 LIG 0.01  A 
ENDBRANCH 22 23
ENDBRANCH 18 22
ENDBRANCH 16 18
ENDBRANCH 6 14
ENDBRANCH 3 6
ENDBRANCH 1 2
BRANCH 1 29
ATOM     29  CB  TYR P   8      80.427  -3.214  60.481  1.00 54.61 LIG 0.07  C 
BRANCH 29 30
ATOM     30  CG  TYR P   8      79.988  -4.502  59.828  1.00 66.64 LIG-0.06  A 
ATOM     31  CD1 TYR P   8      79.499  -5.556  60.590  1.00 68.29 LIG 0.01  A 
ATOM     32  CE1 TYR P   8      79.101  -6.737  59.999  1.00 71.89 LIG 0.04  A 
ATOM     33  CZ  TYR P   8      79.194  -6.877  58.630  1.00 71.50 LIG 0.07  A 
ATOM     34  CE2 TYR P   8      79.680  -5.848  57.853  1.00 69.11 LIG 0.04  A 
ATOM     35  CD2 TYR P   8      80.077  -4.671  58.453  1.00 65.21 LIG 0.01  A 
BRANCH 33 36
ATOM     36 OH   TYR P   8      78.799  -8.054  58.038  1.00 83.55 LIG-0.36  OA
ATOM     37 HH   TYR P   8      78.326  -7.883  57.365  1.00 83.55 LIG 0.22  HD
ENDBRANCH 33 36
ENDBRANCH 29 30
ENDBRANCH 1 29
BRANCH 1 38
ATOM     38  N   TYR P   8      82.431  -2.195  59.476  1.00 59.31 LIG-0.35  N 
ATOM     39  C   VAL P   7      83.121  -2.271  58.341  1.00 65.10 LIG 0.24  C 
ATOM     40 O    VAL P   7      82.584  -2.393  57.232  1.00 66.40 LIG-0.27  OA
ATOM     41 H    TYR P   8      82.801  -2.159  60.252  1.00 59.31 LIG 0.16  HD
BRANCH 39 42
ATOM     42  CA  VAL P   7      84.637  -2.203  58.468  1.00 68.90 LIG 0.18  C 
BRANCH 42 43
ATOM     43  N   VAL P   7      85.229  -3.188  57.572  1.00 69.26 LIG-0.34  N 
ATOM     44  C   LEU P   6      86.385  -3.794  57.828  1.00 74.59 LIG 0.26  C 
ATOM     45 O    LEU P   6      87.026  -3.597  58.863  1.00 73.78 LIG-0.27  OA
ATOM     46 H    VAL P   7      84.762  -3.341  56.866  1.00 69.26 LIG 0.16  HD
BRANCH 44 47
ATOM     47  CA  LEU P   6      86.867  -4.778  56.758  1.00 78.06 LIG 0.40  C 
ATOM     48  N   LEU P   6      87.813  -4.131  55.856  1.00 74.40 LIG 0.61  N 
BRANCH 47 49
ATOM     49  CB  LEU P   6      87.500  -6.024  57.392  1.00 78.52 LIG 0.06  C 
BRANCH 49 50
ATOM     50  CG  LEU P   6      88.768  -5.918  58.245  1.00 77.43 LIG-0.02  C 
ATOM     51  CD2 LEU P   6      90.037  -6.062  57.413  1.00 73.93 LIG 0.01  C 
ATOM     52  CD1 LEU P   6      88.698  -6.970  59.331  1.00 75.78 LIG 0.01  C 
ENDBRANCH 49 50
ENDBRANCH 47 49
ENDBRANCH 44 47
ENDBRANCH 42 43
BRANCH 42 53
ATOM     53  CB  VAL P   7      85.157  -0.789  58.157  1.00 67.45 LIG 0.01  C 
ATOM     54  CG2 VAL P   7      86.143  -0.346  59.223  1.00 67.18 LIG 0.01  C 
ATOM     55  CG1 VAL P   7      84.004   0.190  58.063  1.00 63.58 LIG 0.01  C 
ENDBRANCH 42 53
ENDBRANCH 39 42
ENDBRANCH 1 38
TORSDOF 20
ENDMDL
MODEL 18
USER: ADFR SOLUTION from run 129
USER: SCORE 19.194419 LL:  -4.546 LR: -15.508 RR:   0.000 FEB:  -9.542
USER: RMSD 4.160525
USER: SEED 128
USER: STATUS no improvement in best in 11 clusters for 5 generations
USER: GENES 22
USER: genes 0 Translation |==|  0.45602 0.58375 0.42715
USER: genes 1 Rotation |==|  0.80510 0.10467 0.52345 0.50901
USER: genes 2 Torsion [N]-CA--C-[N] |==|  0.47117
USER: genes 3 Torsion [C]-N--CA-[CB] |==|  0.80000
USER: genes 4 Torsion [N]-CA--CB-[CG] |==|  0.50713
USER: genes 5 Torsion [CA]-CB--CG-[CD] |==|  0.04533
USER: genes 6 Torsion [CB]-CG--CD-[OE1] |==|  0.67017
USER: genes 7 Torsion [N]-CA--C-[N] |==|  0.18870
USER: genes 8 Torsion [C]-N--CA-[C] |==|  0.55439
USER: genes 9 Torsion [N]-CA--C-[O] |==|  0.45116
USER: genes 10 Torsion [N]-CA--CB-[CG] |==|  0.24222
USER: genes 11 Torsion [CA]-CB--CG-[CD1] |==|  0.78126
USER: genes 12 Torsion [C]-CA--CB-[CG] |==|  0.54855
USER: genes 13 Torsion [CA]-CB--CG-[CD1] |==|  0.72057
USER: genes 14 Torsion [CE1]-CZ--OH-[HH] |==|  0.31763
USER: genes 15 Torsion [C]-CA--N-[C] |==|  0.69617
USER: genes 16 Torsion [N]-C--CA-[N] |==|  0.30949
USER: genes 17 Torsion [C]-CA--N-[C] |==|  0.70564
USER: genes 18 Torsion [N]-C--CA-[N] |==|  0.25536
USER: genes 19 Torsion [C]-CA--CB-[CG] |==|  0.56208
USER: genes 20 Torsion [CA]-CB--CG-[CD2] |==|  0.90747
USER: genes 21 Torsion [C]-CA--CB-[CG2] |==|  0.81821
ROOT
ATOM      1  CA  TYR P   8      81.560  -0.283  59.429  1.00 57.99 LIG 0.18  C 
ENDROOT
BRANCH 1 2
ATOM      2  C   TYR P   8      80.298   0.438  58.977  1.00 56.68 LIG 0.24  C 
ATOM      3  N   GLN P   9      80.327   1.767  59.017  1.00 57.67 LIG-0.35  N 
ATOM      4 H    GLN P   9      80.986   2.221  59.334  1.00 57.67 LIG 0.16  HD
ATOM      5 O    TYR P   8      79.315  -0.206  58.596  1.00 54.26 LIG-0.27  OA
BRANCH 3 6
ATOM      6  CA  GLN P   9      79.225   2.578  58.519  1.00 54.86 LIG 0.18  C 
BRANCH 6 7
ATOM      7  CB  GLN P   9      79.163   2.543  56.994  1.00 52.41 LIG 0.04  C 
BRANCH 7 8
ATOM      8  CG  GLN P   9      78.072   3.419  56.403  1.00 53.63 LIG 0.10  C 
BRANCH 8 9
ATOM      9  CD  GLN P   9      77.545   4.427  57.399  1.00 56.56 LIG 0.21  C 
ATOM     10 OE1  GLN P   9      76.362   4.413  57.740  1.00 59.67 LIG-0.27  OA
ATOM     11  NE2 GLN P   9      78.419   5.309  57.872  1.00 58.55 LIG-0.37  N 
ATOM     12 22HE GLN P   9      78.165   5.903  58.440  1.00 58.55 LIG 0.16  HD
ATOM     13 21HE GLN P   9      79.237   5.288  57.610  1.00 58.55 LIG 0.16  HD
ENDBRANCH 8 9
ENDBRANCH 7 8
ENDBRANCH 6 7
BRANCH 6 14
ATOM     14  C   GLN P   9      77.924   2.064  59.121  1.00 54.72 LIG 0.24  C 
ATOM     15 O    GLN P   9      77.082   1.507  58.407  1.00 59.60 LIG-0.27  OA
ATOM     16  N   PHE P  10      77.765   2.238  60.428  1.00 49.02 LIG-0.34  N 
ATOM     17 H    PHE P  10      78.360   2.578  60.948  1.00 49.02 LIG 0.16  HD
BRANCH 16 18
ATOM     18  CA  PHE P  10      76.528   1.850  61.092  1.00 50.33 LIG 0.19  C 
BRANCH 18 19
ATOM     19  C   PHE P  10      76.369   2.551  62.435  1.00 49.91 LIG 0.20  C 
ATOM     20 O    PHE P  10      75.267   2.606  62.983  1.00 45.93 LIG-0.65  OA
ATOM     21 OXT  PHE P  10      77.333   3.083  62.990  1.00 46.36 LIG-0.65  OA
ENDBRANCH 18 19
BRANCH 18 22
ATOM     22  CB  PHE P  10      76.460   0.331  61.270  1.00 51.88 LIG 0.07  C 
BRANCH 22 23
ATOM     23  CG  PHE P  10      77.110  -0.176  62.531  1.00 51.17 LIG-0.06  A 
ATOM     24  CD1 PHE P  10      78.486  -0.307  62.612  1.00 49.53 LIG 0.01  A 
ATOM     25  CE1 PHE P  10      79.083  -0.784  63.762  1.00 54.45 LIG 0.00  A 
ATOM     26  CZ  PHE P  10      78.305  -1.154  64.841  1.00 54.40 LIG 0.00  A 
ATOM     27  CE2 PHE P  10      76.934  -1.035  64.772  1.00 52.97 LIG 0.00  A 
ATOM     28  CD2 PHE P  10      76.340  -0.556  63.619  1.00 50.02 LIG 0.01  A 
ENDBRANCH 22 23
ENDBRANCH 18 22
ENDBRANCH 16 18
ENDBRANCH 6 14
ENDBRANCH 3 6
ENDBRANCH 1 2
BRANCH 1 29
ATOM     29  CB  TYR P   8      82.689  -0.037  58.429  1.00 54.61 LIG 0.07  C 
BRANCH 29 30
ATOM     30  CG  TYR P   8      83.841  -1.007  58.532  1.00 66.64 LIG-0.06  A 
ATOM     31  CD1 TYR P   8      85.014  -0.652  59.186  1.00 68.29 LIG 0.01  A 
ATOM     32  CE1 TYR P   8      86.073  -1.532  59.278  1.00 71.89 LIG 0.04  A 
ATOM     33  CZ  TYR P   8      85.968  -2.783  58.707  1.00 71.50 LIG 0.07  A 
ATOM     34  CE2 TYR P   8      84.817  -3.157  58.048  1.00 69.11 LIG 0.04  A 
ATOM     35  CD2 TYR P   8      83.764  -2.270  57.961  1.00 65.21 LIG 0.01  A 
BRANCH 33 36
ATOM     36 OH   TYR P   8      87.021  -3.663  58.796  1.00 83.55 LIG-0.36  OA
ATOM     37 HH   TYR P   8      86.796  -4.323  59.263  1.00 83.55 LIG 0.22  HD
ENDBRANCH 33 36
ENDBRANCH 29 30
ENDBRANCH 1 29
BRANCH 1 38
ATOM     38  N   TYR P   8      81.267  -1.704  59.553  1.00 59.31 LIG-0.35  N 
ATOM     39  C   VAL P   7      81.194  -2.326  60.727  1.00 65.10 LIG 0.24  C 
ATOM     40 O    VAL P   7      81.438  -1.765  61.804  1.00 66.40 LIG-0.27  OA
ATOM     41 H    TYR P   8      81.146  -2.101  58.800  1.00 59.31 LIG 0.16  HD
BRANCH 39 42
ATOM     42  CA  VAL P   7      80.792  -3.794  60.689  1.00 68.90 LIG 0.18  C 
BRANCH 42 43
ATOM     43  N   VAL P   7      81.937  -4.606  61.077  1.00 69.26 LIG-0.34  N 
ATOM     44  C   LEU P   6      82.644  -5.321  60.207  1.00 74.59 LIG 0.26  C 
ATOM     45 O    LEU P   6      82.408  -5.319  58.996  1.00 73.78 LIG-0.27  OA
ATOM     46 H    VAL P   7      82.112  -4.580  61.919  1.00 69.26 LIG 0.16  HD
BRANCH 44 47
ATOM     47  CA  LEU P   6      83.795  -6.137  60.801  1.00 78.06 LIG 0.40  C 
ATOM     48  N   LEU P   6      83.348  -7.483  61.140  1.00 74.40 LIG 0.61  N 
BRANCH 47 49
ATOM     49  CB  LEU P   6      84.990  -6.198  59.840  1.00 78.52 LIG 0.06  C 
BRANCH 49 50
ATOM     50  CG  LEU P   6      86.028  -7.320  59.941  1.00 77.43 LIG-0.02  C 
ATOM     51  CD2 LEU P   6      86.246  -7.777  61.379  1.00 73.93 LIG 0.01  C 
ATOM     52  CD1 LEU P   6      87.317  -6.831  59.316  1.00 75.78 LIG 0.01  C 
ENDBRANCH 49 50
ENDBRANCH 47 49
ENDBRANCH 44 47
ENDBRANCH 42 43
BRANCH 42 53
ATOM     53  CB  VAL P   7      79.586  -4.062  61.605  1.00 67.45 LIG 0.01  C 
ATOM     54  CG2 VAL P   7      79.967  -3.828  63.056  1.00 67.18 LIG 0.01  C 
ATOM     55  CG1 VAL P   7      79.080  -5.478  61.414  1.00 63.58 LIG 0.01  C 
ENDBRANCH 42 53
ENDBRANCH 39 42
ENDBRANCH 1 38
TORSDOF 20
ENDMDL
MODEL 19
USER: ADFR SOLUTION from run 86
USER: SCORE 17.814522 LL:  -4.276 LR: -15.418 RR:   0.000 FEB:  -9.452
USER: RMSD 2.400730
USER: SEED 85
USER: STATUS no improvement in best in 12 clusters for 5 generations
USER: GENES 22
USER: genes 0 Translation |==|  0.44342 0.49807 0.40194
USER: genes 1 Rotation |==|  0.46567 0.44895 0.49726 0.99619
USER: genes 2 Torsion [N]-CA--C-[N] |==|  0.42063
USER: genes 3 Torsion [C]-N--CA-[CB] |==|  0.37755
USER: genes 4 Torsion [N]-CA--CB-[CG] |==|  0.02291
USER: genes 5 Torsion [CA]-CB--CG-[CD] |==|  0.23680
USER: genes 6 Torsion [CB]-CG--CD-[OE1] |==|  0.00751
USER: genes 7 Torsion [N]-CA--C-[N] |==|  0.27764
USER: genes 8 Torsion [C]-N--CA-[C] |==|  0.56501
USER: genes 9 Torsion [N]-CA--C-[O] |==|  0.88999
USER: genes 10 Torsion [N]-CA--CB-[CG] |==|  0.17557
USER: genes 11 Torsion [CA]-CB--CG-[CD1] |==|  0.80785
USER: genes 12 Torsion [C]-CA--CB-[CG] |==|  0.38859
USER: genes 13 Torsion [CA]-CB--CG-[CD1] |==|  0.42717
USER: genes 14 Torsion [CE1]-CZ--OH-[HH] |==|  0.39234
USER: genes 15 Torsion [C]-CA--N-[C] |==|  0.68271
USER: genes 16 Torsion [N]-C--CA-[N] |==|  0.35203
USER: genes 17 Torsion [C]-CA--N-[C] |==|  0.83336
USER: genes 18 Torsion [N]-C--CA-[N] |==|  0.16407
USER: genes 19 Torsion [C]-CA--CB-[CG] |==|  0.81857
USER: genes 20 Torsion [CA]-CB--CG-[CD2] |==|  0.71481
USER: genes 21 Torsion [C]-CA--CB-[CG2] |==|  0.43714
ROOT
ATOM      1  CA  TYR P   8      81.276  -2.210  58.975  1.00 57.99 LIG 0.18  C 
ENDROOT
BRANCH 1 2
ATOM      2  C   TYR P   8      80.839  -0.754  59.032  1.00 56.68 LIG 0.24  C 
ATOM      3  N   GLN P   9      79.817  -0.411  58.254  1.00 57.67 LIG-0.35  N 
ATOM      4 H    GLN P   9      79.443  -0.944  57.693  1.00 57.67 LIG 0.16  HD
ATOM      5 O    TYR P   8      81.422   0.042  59.775  1.00 54.26 LIG-0.27  OA
BRANCH 3 6
ATOM      6  CA  GLN P   9      79.237   0.925  58.288  1.00 54.86 LIG 0.18  C 
BRANCH 6 7
ATOM      7  CB  GLN P   9      78.980   1.448  56.877  1.00 52.41 LIG 0.04  C 
BRANCH 7 8
ATOM      8  CG  GLN P   9      79.192   0.410  55.789  1.00 53.63 LIG 0.10  C 
BRANCH 8 9
ATOM      9  CD  GLN P   9      77.963  -0.440  55.561  1.00 56.56 LIG 0.21  C 
ATOM     10 OE1  GLN P   9      76.925  -0.224  56.185  1.00 59.67 LIG-0.27  OA
ATOM     11  NE2 GLN P   9      78.072  -1.415  54.664  1.00 58.55 LIG-0.37  N 
ATOM     12 22HE GLN P   9      77.400  -1.926  54.500  1.00 58.55 LIG 0.16  HD
ATOM     13 21HE GLN P   9      78.815  -1.536  54.248  1.00 58.55 LIG 0.16  HD
ENDBRANCH 8 9
ENDBRANCH 7 8
ENDBRANCH 6 7
BRANCH 6 14
ATOM     14  C   GLN P   9      77.941   0.878  59.088  1.00 54.72 LIG 0.24  C 
ATOM     15 O    GLN P   9      76.901   0.458  58.569  1.00 59.60 LIG-0.27  OA
ATOM     16  N   PHE P  10      78.006   1.295  60.347  1.00 49.02 LIG-0.34  N 
ATOM     17 H    PHE P  10      78.730   1.544  60.739  1.00 49.02 LIG 0.16  HD
BRANCH 16 18
ATOM     18  CA  PHE P  10      76.811   1.361  61.177  1.00 50.33 LIG 0.19  C 
BRANCH 18 19
ATOM     19  C   PHE P  10      76.977   2.357  62.319  1.00 49.91 LIG 0.20  C 
ATOM     20 O    PHE P  10      78.049   2.442  62.921  1.00 45.93 LIG-0.65  OA
ATOM     21 OXT  PHE P  10      76.044   3.083  62.667  1.00 46.36 LIG-0.65  OA
ENDBRANCH 18 19
BRANCH 18 22
ATOM     22  CB  PHE P  10      76.451  -0.023  61.722  1.00 51.88 LIG 0.07  C 
BRANCH 22 23
ATOM     23  CG  PHE P  10      77.489  -0.620  62.636  1.00 51.17 LIG-0.06  A 
ATOM     24  CD1 PHE P  10      78.715  -1.029  62.139  1.00 49.53 LIG 0.01  A 
ATOM     25  CE1 PHE P  10      79.663  -1.589  62.972  1.00 54.45 LIG 0.00  A 
ATOM     26  CZ  PHE P  10      79.386  -1.763  64.313  1.00 54.40 LIG 0.00  A 
ATOM     27  CE2 PHE P  10      78.168  -1.367  64.820  1.00 52.97 LIG 0.00  A 
ATOM     28  CD2 PHE P  10      77.222  -0.806  63.983  1.00 50.02 LIG 0.01  A 
ENDBRANCH 22 23
ENDBRANCH 18 22
ENDBRANCH 16 18
ENDBRANCH 6 14
ENDBRANCH 3 6
ENDBRANCH 1 2
BRANCH 1 29
ATOM     29  CB  TYR P   8      80.452  -3.043  59.956  1.00 54.61 LIG 0.07  C 
BRANCH 29 30
ATOM     30  CG  TYR P   8      80.043  -4.401  59.439  1.00 66.64 LIG-0.06  A 
ATOM     31  CD1 TYR P   8      79.791  -5.450  60.314  1.00 68.29 LIG 0.01  A 
ATOM     32  CE1 TYR P   8      79.422  -6.694  59.848  1.00 71.89 LIG 0.04  A 
ATOM     33  CZ  TYR P   8      79.306  -6.904  58.490  1.00 71.50 LIG 0.07  A 
ATOM     34  CE2 TYR P   8      79.555  -5.881  57.600  1.00 69.11 LIG 0.04  A 
ATOM     35  CD2 TYR P   8      79.924  -4.640  58.077  1.00 65.21 LIG 0.01  A 
BRANCH 33 36
ATOM     36 OH   TYR P   8      78.939  -8.144  58.020  1.00 83.55 LIG-0.36  OA
ATOM     37 HH   TYR P   8      78.421  -8.053  57.365  1.00 83.55 LIG 0.22  HD
ENDBRANCH 33 36
ENDBRANCH 29 30
ENDBRANCH 1 29
BRANCH 1 38
ATOM     38  N   TYR P   8      82.697  -2.285  59.285  1.00 59.31 LIG-0.35  N 
ATOM     39  C   VAL P   7      83.610  -2.671  58.399  1.00 65.10 LIG 0.24  C 
ATOM     40 O    VAL P   7      83.322  -3.067  57.262  1.00 66.40 LIG-0.27  OA
ATOM     41 H    TYR P   8      82.889  -2.056  60.092  1.00 59.31 LIG 0.16  HD
BRANCH 39 42
ATOM     42  CA  VAL P   7      85.061  -2.609  58.856  1.00 68.90 LIG 0.18  C 
BRANCH 42 43
ATOM     43  N   VAL P   7      85.680  -3.911  58.638  1.00 69.26 LIG-0.34  N 
ATOM     44  C   LEU P   6      85.237  -5.025  59.212  1.00 74.59 LIG 0.26  C 
ATOM     45 O    LEU P   6      84.244  -5.050  59.943  1.00 73.78 LIG-0.27  OA
ATOM     46 H    VAL P   7      86.355  -3.889  58.106  1.00 69.26 LIG 0.16  HD
BRANCH 44 47
ATOM     47  CA  LEU P   6      86.030  -6.295  58.891  1.00 78.06 LIG 0.40  C 
ATOM     48  N   LEU P   6      87.422  -6.147  59.299  1.00 74.40 LIG 0.61  N 
BRANCH 47 49
ATOM     49  CB  LEU P   6      85.406  -7.527  59.559  1.00 78.52 LIG 0.06  C 
BRANCH 49 50
ATOM     50  CG  LEU P   6      85.371  -7.665  61.084  1.00 77.43 LIG-0.02  C 
ATOM     51  CD2 LEU P   6      86.436  -8.625  61.602  1.00 73.93 LIG 0.01  C 
ATOM     52  CD1 LEU P   6      83.982  -8.110  61.489  1.00 75.78 LIG 0.01  C 
ENDBRANCH 49 50
ENDBRANCH 47 49
ENDBRANCH 44 47
ENDBRANCH 42 43
BRANCH 42 53
ATOM     53  CB  VAL P   7      85.829  -1.501  58.115  1.00 67.45 LIG 0.01  C 
ATOM     54  CG2 VAL P   7      87.042  -1.073  58.921  1.00 67.18 LIG 0.01  C 
ATOM     55  CG1 VAL P   7      84.924  -0.314  57.853  1.00 63.58 LIG 0.01  C 
ENDBRANCH 42 53
ENDBRANCH 39 42
ENDBRANCH 1 38
TORSDOF 20
ENDMDL
MODEL 20
USER: ADFR SOLUTION from run 187
USER: SCORE 17.830888 LL:  -4.392 LR: -15.418 RR:   0.000 FEB:  -9.452
USER: RMSD 2.546111
USER: SEED 186
USER: STATUS no improvement in best in 8 clusters for 5 generations
USER: GENES 22
USER: genes 0 Translation |==|  0.42640 0.50146 0.42311
USER: genes 1 Rotation |==|  0.44546 0.50676 0.49959 0.99697
USER: genes 2 Torsion [N]-CA--C-[N] |==|  0.35987
USER: genes 3 Torsion [C]-N--CA-[CB] |==|  0.39799
USER: genes 4 Torsion [N]-CA--CB-[CG] |==|  0.01135
USER: genes 5 Torsion [CA]-CB--CG-[CD] |==|  0.22797
USER: genes 6 Torsion [CB]-CG--CD-[OE1] |==|  0.00357
USER: genes 7 Torsion [N]-CA--C-[N] |==|  0.25302
USER: genes 8 Torsion [C]-N--CA-[C] |==|  0.58830
USER: genes 9 Torsion [N]-CA--C-[O] |==|  0.42506
USER: genes 10 Torsion [N]-CA--CB-[CG] |==|  0.18635
USER: genes 11 Torsion [CA]-CB--CG-[CD1] |==|  0.81335
USER: genes 12 Torsion [C]-CA--CB-[CG] |==|  0.48048
USER: genes 13 Torsion [CA]-CB--CG-[CD1] |==|  0.64473
USER: genes 14 Torsion [CE1]-CZ--OH-[HH] |==|  0.71058
USER: genes 15 Torsion [C]-CA--N-[C] |==|  0.75885
USER: genes 16 Torsion [N]-C--CA-[N] |==|  0.40051
USER: genes 17 Torsion [C]-CA--N-[C] |==|  0.58911
USER: genes 18 Torsion [N]-C--CA-[N] |==|  0.64022
USER: genes 19 Torsion [C]-CA--CB-[CG] |==|  0.75323
USER: genes 20 Torsion [CA]-CB--CG-[CD2] |==|  0.68231
USER: genes 21 Torsion [C]-CA--CB-[CG2] |==|  0.36152
ROOT
ATOM      1  CA  TYR P   8      80.893  -2.134  59.356  1.00 57.99 LIG 0.18  C 
ENDROOT
BRANCH 1 2
ATOM      2  C   TYR P   8      80.489  -0.668  59.394  1.00 56.68 LIG 0.24  C 
ATOM      3  N   GLN P   9      79.591  -0.277  58.495  1.00 57.67 LIG-0.35  N 
ATOM      4 H    GLN P   9      79.283  -0.786  57.874  1.00 57.67 LIG 0.16  HD
ATOM      5 O    TYR P   8      80.986   0.094  60.230  1.00 54.26 LIG-0.27  OA
BRANCH 3 6
ATOM      6  CA  GLN P   9      79.045   1.074  58.488  1.00 54.86 LIG 0.18  C 
BRANCH 6 7
ATOM      7  CB  GLN P   9      78.825   1.569  57.060  1.00 52.41 LIG 0.04  C 
BRANCH 7 8
ATOM      8  CG  GLN P   9      79.125   0.528  55.996  1.00 53.63 LIG 0.10  C 
BRANCH 8 9
ATOM      9  CD  GLN P   9      77.970  -0.424  55.784  1.00 56.56 LIG 0.21  C 
ATOM     10 OE1  GLN P   9      76.924  -0.295  56.420  1.00 59.67 LIG-0.27  OA
ATOM     11  NE2 GLN P   9      78.150  -1.389  54.888  1.00 58.55 LIG-0.37  N 
ATOM     12 22HE GLN P   9      77.522  -1.956  54.733  1.00 58.55 LIG 0.16  HD
ATOM     13 21HE GLN P   9      78.895  -1.448  54.463  1.00 58.55 LIG 0.16  HD
ENDBRANCH 8 9
ENDBRANCH 7 8
ENDBRANCH 6 7
BRANCH 6 14
ATOM     14  C   GLN P   9      77.735   1.080  59.266  1.00 54.72 LIG 0.24  C 
ATOM     15 O    GLN P   9      76.668   0.830  58.695  1.00 59.60 LIG-0.27  OA
ATOM     16  N   PHE P  10      77.818   1.350  60.564  1.00 49.02 LIG-0.34  N 
ATOM     17 H    PHE P  10      78.556   1.477  60.987  1.00 49.02 LIG 0.16  HD
BRANCH 16 18
ATOM     18  CA  PHE P  10      76.620   1.453  61.385  1.00 50.33 LIG 0.19  C 
BRANCH 18 19
ATOM     19  C   PHE P  10      76.801   2.458  62.516  1.00 49.91 LIG 0.20  C 
ATOM     20 O    PHE P  10      75.827   3.047  62.990  1.00 45.93 LIG-0.65  OA
ATOM     21 OXT  PHE P  10      77.920   2.708  62.968  1.00 46.36 LIG-0.65  OA
ENDBRANCH 18 19
BRANCH 18 22
ATOM     22  CB  PHE P  10      76.224   0.084  61.945  1.00 51.88 LIG 0.07  C 
BRANCH 22 23
ATOM     23  CG  PHE P  10      77.199  -0.483  62.942  1.00 51.17 LIG-0.06  A 
ATOM     24  CD1 PHE P  10      78.470  -0.866  62.548  1.00 49.53 LIG 0.01  A 
ATOM     25  CE1 PHE P  10      79.361  -1.400  63.458  1.00 54.45 LIG 0.00  A 
ATOM     26  CZ  PHE P  10      78.982  -1.574  64.774  1.00 54.40 LIG 0.00  A 
ATOM     27  CE2 PHE P  10      77.717  -1.204  65.179  1.00 52.97 LIG 0.00  A 
ATOM     28  CD2 PHE P  10      76.829  -0.669  64.265  1.00 50.02 LIG 0.01  A 
ENDBRANCH 22 23
ENDBRANCH 18 22
ENDBRANCH 16 18
ENDBRANCH 6 14
ENDBRANCH 3 6
ENDBRANCH 1 2
BRANCH 1 29
ATOM     29  CB  TYR P   8      80.312  -2.869  60.563  1.00 54.61 LIG 0.07  C 
BRANCH 29 30
ATOM     30  CG  TYR P   8      80.508  -4.365  60.544  1.00 66.64 LIG-0.06  A 
ATOM     31  CD1 TYR P   8      79.433  -5.227  60.720  1.00 68.29 LIG 0.01  A 
ATOM     32  CE1 TYR P   8      79.607  -6.595  60.709  1.00 71.89 LIG 0.04  A 
ATOM     33  CZ  TYR P   8      80.870  -7.118  60.524  1.00 71.50 LIG 0.07  A 
ATOM     34  CE2 TYR P   8      81.954  -6.284  60.351  1.00 69.11 LIG 0.04  A 
ATOM     35  CD2 TYR P   8      81.769  -4.917  60.365  1.00 65.21 LIG 0.01  A 
BRANCH 33 36
ATOM     36 OH   TYR P   8      81.048  -8.481  60.513  1.00 83.55 LIG-0.36  OA
ATOM     37 HH   TYR P   8      81.389  -8.725  61.241  1.00 83.55 LIG 0.22  HD
ENDBRANCH 33 36
ENDBRANCH 29 30
ENDBRANCH 1 29
BRANCH 1 38
ATOM     38  N   TYR P   8      82.347  -2.218  59.338  1.00 59.31 LIG-0.35  N 
ATOM     39  C   VAL P   7      83.059  -2.172  58.216  1.00 65.10 LIG 0.24  C 
ATOM     40 O    VAL P   7      82.544  -2.126  57.091  1.00 66.40 LIG-0.27  OA
ATOM     41 H    TYR P   8      82.700  -2.300  60.119  1.00 59.31 LIG 0.16  HD
BRANCH 39 42
ATOM     42  CA  VAL P   7      84.573  -2.184  58.377  1.00 68.90 LIG 0.18  C 
BRANCH 42 43
ATOM     43  N   VAL P   7      85.158  -2.946  57.282  1.00 69.26 LIG-0.34  N 
ATOM     44  C   LEU P   6      86.274  -3.658  57.413  1.00 74.59 LIG 0.26  C 
ATOM     45 O    LEU P   6      86.878  -3.759  58.483  1.00 73.78 LIG-0.27  OA
ATOM     46 H    VAL P   7      84.715  -2.893  56.547  1.00 69.26 LIG 0.16  HD
BRANCH 44 47
ATOM     47  CA  LEU P   6      86.756  -4.370  56.146  1.00 78.06 LIG 0.40  C 
ATOM     48  N   LEU P   6      87.025  -5.777  56.420  1.00 74.40 LIG 0.61  N 
BRANCH 47 49
ATOM     49  CB  LEU P   6      85.738  -4.233  55.007  1.00 78.52 LIG 0.06  C 
BRANCH 49 50
ATOM     50  CG  LEU P   6      84.607  -5.251  54.832  1.00 77.43 LIG-0.02  C 
ATOM     51  CD2 LEU P   6      84.744  -6.050  53.541  1.00 73.93 LIG 0.01  C 
ATOM     52  CD1 LEU P   6      83.288  -4.509  54.885  1.00 75.78 LIG 0.01  C 
ENDBRANCH 49 50
ENDBRANCH 47 49
ENDBRANCH 44 47
ENDBRANCH 42 43
BRANCH 42 53
ATOM     53  CB  VAL P   7      85.137  -0.754  58.419  1.00 67.45 LIG 0.01  C 
ATOM     54  CG2 VAL P   7      86.064  -0.588  59.610  1.00 67.18 LIG 0.01  C 
ATOM     55  CG1 VAL P   7      84.011   0.259  58.481  1.00 63.58 LIG 0.01  C 
ENDBRANCH 42 53
ENDBRANCH 39 42
ENDBRANCH 1 38
TORSDOF 20
ENDMDL
MODEL 21
USER: ADFR SOLUTION from run 40
USER: SCORE 17.906240 LL:  -4.442 LR: -15.357 RR:   0.000 FEB:  -9.391
USER: RMSD 1.835742
USER: SEED 39
USER: STATUS searching
USER: GENES 22
USER: genes 0 Translation |==|  0.43767 0.49645 0.41074
USER: genes 1 Rotation |==|  0.50519 0.46502 0.47389 0.99806
USER: genes 2 Torsion [N]-CA--C-[N] |==|  0.39810
USER: genes 3 Torsion [C]-N--CA-[CB] |==|  0.35647
USER: genes 4 Torsion [N]-CA--CB-[CG] |==|  0.45436
USER: genes 5 Torsion [CA]-CB--CG-[CD] |==|  0.18934
USER: genes 6 Torsion [CB]-CG--CD-[OE1] |==|  0.04481
USER: genes 7 Torsion [N]-CA--C-[N] |==|  0.30843
USER: genes 8 Torsion [C]-N--CA-[C] |==|  0.57916
USER: genes 9 Torsion [N]-CA--C-[O] |==|  0.48832
USER: genes 10 Torsion [N]-CA--CB-[CG] |==|  0.14420
USER: genes 11 Torsion [CA]-CB--CG-[CD1] |==|  0.27222
USER: genes 12 Torsion [C]-CA--CB-[CG] |==|  0.42113
USER: genes 13 Torsion [CA]-CB--CG-[CD1] |==|  0.42471
USER: genes 14 Torsion [CE1]-CZ--OH-[HH] |==|  0.32149
USER: genes 15 Torsion [C]-CA--N-[C] |==|  0.59761
USER: genes 16 Torsion [N]-C--CA-[N] |==|  0.37561
USER: genes 17 Torsion [C]-CA--N-[C] |==|  0.82794
USER: genes 18 Torsion [N]-C--CA-[N] |==|  0.79986
USER: genes 19 Torsion [C]-CA--CB-[CG] |==|  0.35042
USER: genes 20 Torsion [CA]-CB--CG-[CD2] |==|  0.96230
USER: genes 21 Torsion [C]-CA--CB-[CG2] |==|  0.38193
ROOT
ATOM      1  CA  TYR P   8      81.147  -2.247  59.133  1.00 57.99 LIG 0.18  C 
ENDROOT
BRANCH 1 2
ATOM      2  C   TYR P   8      80.839  -0.792  59.457  1.00 56.68 LIG 0.24  C 
ATOM      3  N   GLN P   9      79.925  -0.197  58.697  1.00 57.67 LIG-0.35  N 
ATOM      4 H    GLN P   9      79.555  -0.567  58.014  1.00 57.67 LIG 0.16  HD
ATOM      5 O    TYR P   8      81.424  -0.224  60.385  1.00 54.26 LIG-0.27  OA
BRANCH 3 6
ATOM      6  CA  GLN P   9      79.466   1.160  58.963  1.00 54.86 LIG 0.18  C 
BRANCH 6 7
ATOM      7  CB  GLN P   9      79.560   2.027  57.711  1.00 52.41 LIG 0.04  C 
BRANCH 7 8
ATOM      8  CG  GLN P   9      78.751   3.310  57.790  1.00 53.63 LIG 0.10  C 
BRANCH 8 9
ATOM      9  CD  GLN P   9      79.314   4.281  58.802  1.00 56.56 LIG 0.21  C 
ATOM     10 OE1  GLN P   9      80.458   4.144  59.236  1.00 59.67 LIG-0.27  OA
ATOM     11  NE2 GLN P   9      78.515   5.271  59.187  1.00 58.55 LIG-0.37  N 
ATOM     12 22HE GLN P   9      78.790   5.849  59.762  1.00 58.55 LIG 0.16  HD
ATOM     13 21HE GLN P   9      77.722   5.334  58.862  1.00 58.55 LIG 0.16  HD
ENDBRANCH 8 9
ENDBRANCH 7 8
ENDBRANCH 6 7
BRANCH 6 14
ATOM     14  C   GLN P   9      78.031   1.104  59.471  1.00 54.72 LIG 0.24  C 
ATOM     15 O    GLN P   9      77.114   0.759  58.717  1.00 59.60 LIG-0.27  OA
ATOM     16  N   PHE P  10      77.839   1.428  60.745  1.00 49.02 LIG-0.34  N 
ATOM     17 H    PHE P  10      78.470   1.622  61.296  1.00 49.02 LIG 0.16  HD
BRANCH 16 18
ATOM     18  CA  PHE P  10      76.499   1.478  61.312  1.00 50.33 LIG 0.19  C 
BRANCH 18 19
ATOM     19  C   PHE P  10      76.413   2.478  62.458  1.00 49.91 LIG 0.20  C 
ATOM     20 O    PHE P  10      75.332   2.708  63.006  1.00 45.93 LIG-0.65  OA
ATOM     21 OXT  PHE P  10      77.414   3.080  62.850  1.00 46.36 LIG-0.65  OA
ENDBRANCH 18 19
BRANCH 18 22
ATOM     22  CB  PHE P  10      76.054   0.089  61.778  1.00 51.88 LIG 0.07  C 
BRANCH 22 23
ATOM     23  CG  PHE P  10      77.033  -0.602  62.689  1.00 51.17 LIG-0.06  A 
ATOM     24  CD1 PHE P  10      76.861  -0.573  64.063  1.00 49.53 LIG 0.01  A 
ATOM     25  CE1 PHE P  10      77.766  -1.194  64.901  1.00 54.45 LIG 0.00  A 
ATOM     26  CZ  PHE P  10      78.866  -1.839  64.372  1.00 54.40 LIG 0.00  A 
ATOM     27  CE2 PHE P  10      79.053  -1.871  63.008  1.00 52.97 LIG 0.00  A 
ATOM     28  CD2 PHE P  10      78.145  -1.248  62.172  1.00 50.02 LIG 0.01  A 
ENDBRANCH 22 23
ENDBRANCH 18 22
ENDBRANCH 16 18
ENDBRANCH 6 14
ENDBRANCH 3 6
ENDBRANCH 1 2
BRANCH 1 29
ATOM     29  CB  TYR P   8      80.305  -3.168  60.015  1.00 54.61 LIG 0.07  C 
BRANCH 29 30
ATOM     30  CG  TYR P   8      79.989  -4.511  59.400  1.00 66.64 LIG-0.06  A 
ATOM     31  CD1 TYR P   8      79.751  -5.621  60.200  1.00 68.29 LIG 0.01  A 
ATOM     32  CE1 TYR P   8      79.467  -6.851  59.644  1.00 71.89 LIG 0.04  A 
ATOM     33  CZ  TYR P   8      79.423  -6.983  58.272  1.00 71.50 LIG 0.07  A 
ATOM     34  CE2 TYR P   8      79.659  -5.897  57.457  1.00 69.11 LIG 0.04  A 
ATOM     35  CD2 TYR P   8      79.943  -4.671  58.022  1.00 65.21 LIG 0.01  A 
BRANCH 33 36
ATOM     36 OH   TYR P   8      79.141  -8.208  57.714  1.00 83.55 LIG-0.36  OA
ATOM     37 HH   TYR P   8      78.415  -8.164  57.293  1.00 83.55 LIG 0.22  HD
ENDBRANCH 33 36
ENDBRANCH 29 30
ENDBRANCH 1 29
BRANCH 1 38
ATOM     38  N   TYR P   8      82.570  -2.480  59.336  1.00 59.31 LIG-0.35  N 
ATOM     39  C   VAL P   7      83.281  -3.308  58.576  1.00 65.10 LIG 0.24  C 
ATOM     40 O    VAL P   7      82.780  -4.001  57.681  1.00 66.40 LIG-0.27  OA
ATOM     41 H    TYR P   8      82.905  -2.034  59.991  1.00 59.31 LIG 0.16  HD
BRANCH 39 42
ATOM     42  CA  VAL P   7      84.775  -3.372  58.865  1.00 68.90 LIG 0.18  C 
BRANCH 42 43
ATOM     43  N   VAL P   7      85.193  -4.768  58.876  1.00 69.26 LIG-0.34  N 
ATOM     44  C   LEU P   6      84.719  -5.657  59.744  1.00 74.59 LIG 0.26  C 
ATOM     45 O    LEU P   6      83.858  -5.376  60.581  1.00 73.78 LIG-0.27  OA
ATOM     46 H    VAL P   7      85.773  -4.961  58.271  1.00 69.26 LIG 0.16  HD
BRANCH 44 47
ATOM     47  CA  LEU P   6      85.296  -7.070  59.625  1.00 78.06 LIG 0.40  C 
ATOM     48  N   LEU P   6      84.789  -7.732  58.429  1.00 74.40 LIG 0.61  N 
BRANCH 47 49
ATOM     49  CB  LEU P   6      86.830  -7.047  59.614  1.00 78.52 LIG 0.06  C 
BRANCH 49 50
ATOM     50  CG  LEU P   6      87.639  -7.892  60.602  1.00 77.43 LIG-0.02  C 
ATOM     51  CD2 LEU P   6      86.778  -8.439  61.735  1.00 73.93 LIG 0.01  C 
ATOM     52  CD1 LEU P   6      88.775  -7.044  61.133  1.00 75.78 LIG 0.01  C 
ENDBRANCH 49 50
ENDBRANCH 47 49
ENDBRANCH 44 47
ENDBRANCH 42 43
BRANCH 42 53
ATOM     53  CB  VAL P   7      85.574  -2.563  57.829  1.00 67.45 LIG 0.01  C 
ATOM     54  CG2 VAL P   7      86.668  -1.764  58.516  1.00 67.18 LIG 0.01  C 
ATOM     55  CG1 VAL P   7      84.655  -1.641  57.052  1.00 63.58 LIG 0.01  C 
ENDBRANCH 42 53
ENDBRANCH 39 42
ENDBRANCH 1 38
TORSDOF 20
ENDMDL
MODEL 22
USER: ADFR SOLUTION from run 126
USER: SCORE 18.663216 LL:  -4.791 LR: -15.347 RR:   0.000 FEB:  -9.381
USER: RMSD 3.042169
USER: SEED 125
USER: STATUS no improvement in best in 15 clusters for 5 generations
USER: GENES 22
USER: genes 0 Translation |==|  0.45611 0.45726 0.41203
USER: genes 1 Rotation |==|  0.51524 0.44044 0.45102 0.99378
USER: genes 2 Torsion [N]-CA--C-[N] |==|  0.50204
USER: genes 3 Torsion [C]-N--CA-[CB] |==|  0.26583
USER: genes 4 Torsion [N]-CA--CB-[CG] |==|  0.13170
USER: genes 5 Torsion [CA]-CB--CG-[CD] |==|  0.25575
USER: genes 6 Torsion [CB]-CG--CD-[OE1] |==|  0.74570
USER: genes 7 Torsion [N]-CA--C-[N] |==|  0.39893
USER: genes 8 Torsion [C]-N--CA-[C] |==|  0.54471
USER: genes 9 Torsion [N]-CA--C-[O] |==|  0.48462
USER: genes 10 Torsion [N]-CA--CB-[CG] |==|  0.11386
USER: genes 11 Torsion [CA]-CB--CG-[CD1] |==|  0.75404
USER: genes 12 Torsion [C]-CA--CB-[CG] |==|  0.40894
USER: genes 13 Torsion [CA]-CB--CG-[CD1] |==|  0.94759
USER: genes 14 Torsion [CE1]-CZ--OH-[HH] |==|  0.73585
USER: genes 15 Torsion [C]-CA--N-[C] |==|  0.53893
USER: genes 16 Torsion [N]-C--CA-[N] |==|  0.42059
USER: genes 17 Torsion [C]-CA--N-[C] |==|  0.77222
USER: genes 18 Torsion [N]-C--CA-[N] |==|  0.41802
USER: genes 19 Torsion [C]-CA--CB-[CG] |==|  0.97903
USER: genes 20 Torsion [CA]-CB--CG-[CD2] |==|  0.77149
USER: genes 21 Torsion [C]-CA--CB-[CG2] |==|  0.23309
ROOT
ATOM      1  CA  TYR P   8      81.562  -3.129  59.157  1.00 57.99 LIG 0.18  C 
ENDROOT
BRANCH 1 2
ATOM      2  C   TYR P   8      81.351  -1.665  59.515  1.00 56.68 LIG 0.24  C 
ATOM      3  N   GLN P   9      80.140  -1.167  59.288  1.00 57.67 LIG-0.35  N 
ATOM      4 H    GLN P   9      79.507  -1.605  58.905  1.00 57.67 LIG 0.16  HD
ATOM      5 O    TYR P   8      82.278  -1.001  59.991  1.00 54.26 LIG-0.27  OA
BRANCH 3 6
ATOM      6  CA  GLN P   9      79.778   0.189  59.678  1.00 54.86 LIG 0.18  C 
BRANCH 6 7
ATOM      7  CB  GLN P   9      79.944   1.159  58.511  1.00 52.41 LIG 0.04  C 
BRANCH 7 8
ATOM      8  CG  GLN P   9      79.335   0.665  57.211  1.00 53.63 LIG 0.10  C 
BRANCH 8 9
ATOM      9  CD  GLN P   9      77.908   1.133  57.033  1.00 56.56 LIG 0.21  C 
ATOM     10 OE1  GLN P   9      76.967   0.444  57.426  1.00 59.67 LIG-0.27  OA
ATOM     11  NE2 GLN P   9      77.737   2.309  56.437  1.00 58.55 LIG-0.37  N 
ATOM     12 22HE GLN P   9      76.943   2.617  56.313  1.00 58.55 LIG 0.16  HD
ATOM     13 21HE GLN P   9      78.419   2.762  56.175  1.00 58.55 LIG 0.16  HD
ENDBRANCH 8 9
ENDBRANCH 7 8
ENDBRANCH 6 7
BRANCH 6 14
ATOM     14  C   GLN P   9      78.339   0.191  60.177  1.00 54.72 LIG 0.24  C 
ATOM     15 O    GLN P   9      77.495  -0.547  59.654  1.00 59.60 LIG-0.27  OA
ATOM     16  N   PHE P  10      78.063   1.004  61.190  1.00 49.02 LIG-0.34  N 
ATOM     17 H    PHE P  10      78.647   1.487  61.598  1.00 49.02 LIG 0.16  HD
BRANCH 16 18
ATOM     18  CA  PHE P  10      76.704   1.137  61.695  1.00 50.33 LIG 0.19  C 
BRANCH 18 19
ATOM     19  C   PHE P  10      76.548   2.380  62.564  1.00 49.91 LIG 0.20  C 
ATOM     20 O    PHE P  10      75.440   2.706  62.993  1.00 45.93 LIG-0.65  OA
ATOM     21 OXT  PHE P  10      77.521   3.083  62.843  1.00 46.36 LIG-0.65  OA
ENDBRANCH 18 19
BRANCH 18 22
ATOM     22  CB  PHE P  10      76.288  -0.114  62.473  1.00 51.88 LIG 0.07  C 
BRANCH 22 23
ATOM     23  CG  PHE P  10      77.364  -0.679  63.362  1.00 51.17 LIG-0.06  A 
ATOM     24  CD1 PHE P  10      78.270  -1.605  62.872  1.00 49.53 LIG 0.01  A 
ATOM     25  CE1 PHE P  10      79.249  -2.135  63.689  1.00 54.45 LIG 0.00  A 
ATOM     26  CZ  PHE P  10      79.322  -1.755  65.014  1.00 54.40 LIG 0.00  A 
ATOM     27  CE2 PHE P  10      78.424  -0.839  65.516  1.00 52.97 LIG 0.00  A 
ATOM     28  CD2 PHE P  10      77.445  -0.311  64.695  1.00 50.02 LIG 0.01  A 
ENDBRANCH 22 23
ENDBRANCH 18 22
ENDBRANCH 16 18
ENDBRANCH 6 14
ENDBRANCH 3 6
ENDBRANCH 1 2
BRANCH 1 29
ATOM     29  CB  TYR P   8      80.556  -4.001  59.908  1.00 54.61 LIG 0.07  C 
BRANCH 29 30
ATOM     30  CG  TYR P   8      80.109  -5.232  59.158  1.00 66.64 LIG-0.06  A 
ATOM     31  CD1 TYR P   8      80.271  -5.326  57.782  1.00 68.29 LIG 0.01  A 
ATOM     32  CE1 TYR P   8      79.859  -6.447  57.091  1.00 71.89 LIG 0.04  A 
ATOM     33  CZ  TYR P   8      79.271  -7.490  57.776  1.00 71.50 LIG 0.07  A 
ATOM     34  CE2 TYR P   8      79.096  -7.419  59.141  1.00 69.11 LIG 0.04  A 
ATOM     35  CD2 TYR P   8      79.510  -6.294  59.823  1.00 65.21 LIG 0.01  A 
BRANCH 33 36
ATOM     36 OH   TYR P   8      78.859  -8.608  57.091  1.00 83.55 LIG-0.36  OA
ATOM     37 HH   TYR P   8      78.043  -8.537  56.903  1.00 83.55 LIG 0.22  HD
ENDBRANCH 33 36
ENDBRANCH 29 30
ENDBRANCH 1 29
BRANCH 1 38
ATOM     38  N   TYR P   8      82.931  -3.499  59.487  1.00 59.31 LIG-0.35  N 
ATOM     39  C   VAL P   7      83.502  -4.618  59.050  1.00 65.10 LIG 0.24  C 
ATOM     40 O    VAL P   7      82.895  -5.469  58.386  1.00 66.40 LIG-0.27  OA
ATOM     41 H    TYR P   8      83.333  -2.928  59.990  1.00 59.31 LIG 0.16  HD
BRANCH 39 42
ATOM     42  CA  VAL P   7      84.967  -4.814  59.414  1.00 68.90 LIG 0.18  C 
BRANCH 42 43
ATOM     43  N   VAL P   7      85.245  -6.242  59.495  1.00 69.26 LIG-0.34  N 
ATOM     44  C   LEU P   6      84.970  -6.971  60.572  1.00 74.59 LIG 0.26  C 
ATOM     45 O    LEU P   6      84.421  -6.502  61.572  1.00 73.78 LIG-0.27  OA
ATOM     46 H    VAL P   7      85.602  -6.567  58.784  1.00 69.26 LIG 0.16  HD
BRANCH 44 47
ATOM     47  CA  LEU P   6      85.360  -8.449  60.488  1.00 78.06 LIG 0.40  C 
ATOM     48  N   LEU P   6      85.679  -8.972  61.812  1.00 74.40 LIG 0.61  N 
BRANCH 47 49
ATOM     49  CB  LEU P   6      84.248  -9.283  59.839  1.00 78.52 LIG 0.06  C 
BRANCH 49 50
ATOM     50  CG  LEU P   6      82.882  -8.666  59.522  1.00 77.43 LIG-0.02  C 
ATOM     51  CD2 LEU P   6      81.965  -8.638  60.739  1.00 73.93 LIG 0.01  C 
ATOM     52  CD1 LEU P   6      82.263  -9.445  58.381  1.00 75.78 LIG 0.01  C 
ENDBRANCH 49 50
ENDBRANCH 47 49
ENDBRANCH 44 47
ENDBRANCH 42 43
BRANCH 42 53
ATOM     53  CB  VAL P   7      85.888  -4.128  58.391  1.00 67.45 LIG 0.01  C 
ATOM     54  CG2 VAL P   7      86.051  -2.658  58.733  1.00 67.18 LIG 0.01  C 
ATOM     55  CG1 VAL P   7      85.335  -4.286  56.989  1.00 63.58 LIG 0.01  C 
ENDBRANCH 42 53
ENDBRANCH 39 42
ENDBRANCH 1 38
TORSDOF 20
ENDMDL
MODEL 23
USER: ADFR SOLUTION from run 199
USER: SCORE 17.331059 LL:  -4.223 LR: -15.273 RR:   0.000 FEB:  -9.307
USER: RMSD 1.327212
USER: SEED 198
USER: STATUS no improvement in best in 10 clusters for 5 generations
USER: GENES 22
USER: genes 0 Translation |==|  0.42966 0.50092 0.43571
USER: genes 1 Rotation |==|  0.46852 0.51826 0.49444 0.99864
USER: genes 2 Torsion [N]-CA--C-[N] |==|  0.33726
USER: genes 3 Torsion [C]-N--CA-[CB] |==|  0.38722
USER: genes 4 Torsion [N]-CA--CB-[CG] |==|  0.47358
USER: genes 5 Torsion [CA]-CB--CG-[CD] |==|  0.15693
USER: genes 6 Torsion [CB]-CG--CD-[OE1] |==|  0.04006
USER: genes 7 Torsion [N]-CA--C-[N] |==|  0.28272
USER: genes 8 Torsion [C]-N--CA-[C] |==|  0.57686
USER: genes 9 Torsion [N]-CA--C-[O] |==|  0.49677
USER: genes 10 Torsion [N]-CA--CB-[CG] |==|  0.17063
USER: genes 11 Torsion [CA]-CB--CG-[CD1] |==|  0.77011
USER: genes 12 Torsion [C]-CA--CB-[CG] |==|  0.48621
USER: genes 13 Torsion [CA]-CB--CG-[CD1] |==|  0.66407
USER: genes 14 Torsion [CE1]-CZ--OH-[HH] |==|  0.57339
USER: genes 15 Torsion [C]-CA--N-[C] |==|  0.72296
USER: genes 16 Torsion [N]-C--CA-[N] |==|  0.39316
USER: genes 17 Torsion [C]-CA--N-[C] |==|  0.55863
USER: genes 18 Torsion [N]-C--CA-[N] |==|  0.24470
USER: genes 19 Torsion [C]-CA--CB-[CG] |==|  0.81786
USER: genes 20 Torsion [CA]-CB--CG-[CD2] |==|  0.70511
USER: genes 21 Torsion [C]-CA--CB-[CG2] |==|  0.35811
ROOT
ATOM      1  CA  TYR P   8      80.966  -2.146  59.583  1.00 57.99 LIG 0.18  C 
ENDROOT
BRANCH 1 2
ATOM      2  C   TYR P   8      80.606  -0.680  59.773  1.00 56.68 LIG 0.24  C 
ATOM      3  N   GLN P   9      79.811  -0.141  58.854  1.00 57.67 LIG-0.35  N 
ATOM      4 H    GLN P   9      79.548  -0.555  58.147  1.00 57.67 LIG 0.16  HD
ATOM      5 O    TYR P   8      81.045  -0.052  60.742  1.00 54.26 LIG-0.27  OA
BRANCH 3 6
ATOM      6  CA  GLN P   9      79.311   1.222  58.971  1.00 54.86 LIG 0.18  C 
BRANCH 6 7
ATOM      7  CB  GLN P   9      79.334   1.933  57.620  1.00 52.41 LIG 0.04  C 
BRANCH 7 8
ATOM      8  CG  GLN P   9      78.618   3.273  57.619  1.00 53.63 LIG 0.10  C 
BRANCH 8 9
ATOM      9  CD  GLN P   9      79.169   4.218  58.663  1.00 56.56 LIG 0.21  C 
ATOM     10 OE1  GLN P   9      80.246   3.989  59.212  1.00 59.67 LIG-0.27  OA
ATOM     11  NE2 GLN P   9      78.433   5.288  58.945  1.00 58.55 LIG-0.37  N 
ATOM     12 22HE GLN P   9      78.704   5.854  59.533  1.00 58.55 LIG 0.16  HD
ATOM     13 21HE GLN P   9      77.685   5.414  58.541  1.00 58.55 LIG 0.16  HD
ENDBRANCH 8 9
ENDBRANCH 7 8
ENDBRANCH 6 7
BRANCH 6 14
ATOM     14  C   GLN P   9      77.895   1.180  59.532  1.00 54.72 LIG 0.24  C 
ATOM     15 O    GLN P   9      76.943   0.877  58.803  1.00 59.60 LIG-0.27  OA
ATOM     16  N   PHE P  10      77.759   1.470  60.821  1.00 49.02 LIG-0.34  N 
ATOM     17 H    PHE P  10      78.414   1.634  61.353  1.00 49.02 LIG 0.16  HD
BRANCH 16 18
ATOM     18  CA  PHE P  10      76.442   1.531  61.440  1.00 50.33 LIG 0.19  C 
BRANCH 18 19
ATOM     19  C   PHE P  10      76.426   2.482  62.630  1.00 49.91 LIG 0.20  C 
ATOM     20 O    PHE P  10      75.385   2.673  63.262  1.00 45.93 LIG-0.65  OA
ATOM     21 OXT  PHE P  10      77.446   3.082  62.975  1.00 46.36 LIG-0.65  OA
ENDBRANCH 18 19
BRANCH 18 22
ATOM     22  CB  PHE P  10      75.976   0.135  61.864  1.00 51.88 LIG 0.07  C 
BRANCH 22 23
ATOM     23  CG  PHE P  10      76.860  -0.531  62.885  1.00 51.17 LIG-0.06  A 
ATOM     24  CD1 PHE P  10      78.007  -1.202  62.494  1.00 49.53 LIG 0.01  A 
ATOM     25  CE1 PHE P  10      78.811  -1.826  63.427  1.00 54.45 LIG 0.00  A 
ATOM     26  CZ  PHE P  10      78.466  -1.800  64.764  1.00 54.40 LIG 0.00  A 
ATOM     27  CE2 PHE P  10      77.324  -1.142  65.165  1.00 52.97 LIG 0.00  A 
ATOM     28  CD2 PHE P  10      76.522  -0.518  64.229  1.00 50.02 LIG 0.01  A 
ENDBRANCH 22 23
ENDBRANCH 18 22
ENDBRANCH 16 18
ENDBRANCH 6 14
ENDBRANCH 3 6
ENDBRANCH 1 2
BRANCH 1 29
ATOM     29  CB  TYR P   8      80.415  -2.975  60.742  1.00 54.61 LIG 0.07  C 
BRANCH 29 30
ATOM     30  CG  TYR P   8      80.612  -4.465  60.600  1.00 66.64 LIG-0.06  A 
ATOM     31  CD1 TYR P   8      79.524  -5.328  60.591  1.00 68.29 LIG 0.01  A 
ATOM     32  CE1 TYR P   8      79.697  -6.691  60.467  1.00 71.89 LIG 0.04  A 
ATOM     33  CZ  TYR P   8      80.971  -7.207  60.354  1.00 71.50 LIG 0.07  A 
ATOM     34  CE2 TYR P   8      82.067  -6.371  60.365  1.00 69.11 LIG 0.04  A 
ATOM     35  CD2 TYR P   8      81.884  -5.010  60.490  1.00 65.21 LIG 0.01  A 
BRANCH 33 36
ATOM     36 OH   TYR P   8      81.148  -8.565  60.231  1.00 83.55 LIG-0.36  OA
ATOM     37 HH   TYR P   8      81.906  -8.777  60.526  1.00 83.55 LIG 0.22  HD
ENDBRANCH 33 36
ENDBRANCH 29 30
ENDBRANCH 1 29
BRANCH 1 38
ATOM     38  N   TYR P   8      82.415  -2.264  59.493  1.00 59.31 LIG-0.35  N 
ATOM     39  C   VAL P   7      83.060  -2.382  58.336  1.00 65.10 LIG 0.24  C 
ATOM     40 O    VAL P   7      82.478  -2.473  57.246  1.00 66.40 LIG-0.27  OA
ATOM     41 H    TYR P   8      82.813  -2.250  60.256  1.00 59.31 LIG 0.16  HD
BRANCH 39 42
ATOM     42  CA  VAL P   7      84.580  -2.406  58.410  1.00 68.90 LIG 0.18  C 
BRANCH 42 43
ATOM     43  N   VAL P   7      85.084  -3.366  57.436  1.00 69.26 LIG-0.34  N 
ATOM     44  C   LEU P   6      86.292  -3.915  57.523  1.00 74.59 LIG 0.26  C 
ATOM     45 O    LEU P   6      87.064  -3.684  58.457  1.00 73.78 LIG-0.27  OA
ATOM     46 H    VAL P   7      84.529  -3.543  56.804  1.00 69.26 LIG 0.16  HD
BRANCH 44 47
ATOM     47  CA  LEU P   6      86.663  -4.880  56.393  1.00 78.06 LIG 0.40  C 
ATOM     48  N   LEU P   6      87.269  -4.158  55.281  1.00 74.40 LIG 0.61  N 
BRANCH 47 49
ATOM     49  CB  LEU P   6      87.604  -5.985  56.890  1.00 78.52 LIG 0.06  C 
BRANCH 49 50
ATOM     50  CG  LEU P   6      89.021  -5.657  57.372  1.00 77.43 LIG-0.02  C 
ATOM     51  CD2 LEU P   6      90.086  -6.082  56.367  1.00 73.93 LIG 0.01  C 
ATOM     52  CD1 LEU P   6      89.232  -6.323  58.715  1.00 75.78 LIG 0.01  C 
ENDBRANCH 49 50
ENDBRANCH 47 49
ENDBRANCH 44 47
ENDBRANCH 42 43
BRANCH 42 53
ATOM     53  CB  VAL P   7      85.169  -1.007  58.163  1.00 67.45 LIG 0.01  C 
ATOM     54  CG2 VAL P   7      86.147  -0.646  59.267  1.00 67.18 LIG 0.01  C 
ATOM     55  CG1 VAL P   7      84.063   0.026  58.078  1.00 63.58 LIG 0.01  C 
ENDBRANCH 42 53
ENDBRANCH 39 42
ENDBRANCH 1 38
TORSDOF 20
ENDMDL
MODEL 24
USER: ADFR SOLUTION from run 57
USER: SCORE 18.527616 LL:  -4.686 LR: -15.239 RR:   0.000 FEB:  -9.273
USER: RMSD 3.276168
USER: SEED 56
USER: STATUS no improvement in best in 5 clusters for 5 generations
USER: GENES 22
USER: genes 0 Translation |==|  0.44862 0.48490 0.42737
USER: genes 1 Rotation |==|  0.52976 0.53386 0.52712 0.99722
USER: genes 2 Torsion [N]-CA--C-[N] |==|  0.29726
USER: genes 3 Torsion [C]-N--CA-[CB] |==|  0.46111
USER: genes 4 Torsion [N]-CA--CB-[CG] |==|  0.06541
USER: genes 5 Torsion [CA]-CB--CG-[CD] |==|  0.20431
USER: genes 6 Torsion [CB]-CG--CD-[OE1] |==|  0.07166
USER: genes 7 Torsion [N]-CA--C-[N] |==|  0.38456
USER: genes 8 Torsion [C]-N--CA-[C] |==|  0.65750
USER: genes 9 Torsion [N]-CA--C-[O] |==|  0.44513
USER: genes 10 Torsion [N]-CA--CB-[CG] |==|  0.84973
USER: genes 11 Torsion [CA]-CB--CG-[CD1] |==|  0.38966
USER: genes 12 Torsion [C]-CA--CB-[CG] |==|  0.36831
USER: genes 13 Torsion [CA]-CB--CG-[CD1] |==|  0.52495
USER: genes 14 Torsion [CE1]-CZ--OH-[HH] |==|  0.32870
USER: genes 15 Torsion [C]-CA--N-[C] |==|  0.76912
USER: genes 16 Torsion [N]-C--CA-[N] |==|  0.45761
USER: genes 17 Torsion [C]-CA--N-[C] |==|  0.57136
USER: genes 18 Torsion [N]-C--CA-[N] |==|  0.45125
USER: genes 19 Torsion [C]-CA--CB-[CG] |==|  0.23157
USER: genes 20 Torsion [CA]-CB--CG-[CD2] |==|  0.04809
USER: genes 21 Torsion [C]-CA--CB-[CG2] |==|  0.75503
ROOT
ATOM      1  CA  TYR P   8      81.393  -2.507  59.433  1.00 57.99 LIG 0.18  C 
ENDROOT
BRANCH 1 2
ATOM      2  C   TYR P   8      80.894  -1.187  60.003  1.00 56.68 LIG 0.24  C 
ATOM      3  N   GLN P   9      80.209  -0.405  59.175  1.00 57.67 LIG-0.35  N 
ATOM      4 H    GLN P   9      80.090  -0.579  58.341  1.00 57.67 LIG 0.16  HD
ATOM      5 O    TYR P   8      81.128  -0.889  61.179  1.00 54.26 LIG-0.27  OA
BRANCH 3 6
ATOM      6  CA  GLN P   9      79.591   0.836  59.621  1.00 54.86 LIG 0.18  C 
BRANCH 6 7
ATOM      7  CB  GLN P   9      79.173   1.700  58.434  1.00 52.41 LIG 0.04  C 
BRANCH 7 8
ATOM      8  CG  GLN P   9      78.953   0.916  57.152  1.00 53.63 LIG 0.10  C 
BRANCH 8 9
ATOM      9  CD  GLN P   9      77.673   0.111  57.184  1.00 56.56 LIG 0.21  C 
ATOM     10 OE1  GLN P   9      76.731   0.458  57.896  1.00 59.67 LIG-0.27  OA
ATOM     11  NE2 GLN P   9      77.630  -0.970  56.413  1.00 58.55 LIG-0.37  N 
ATOM     12 22HE GLN P   9      76.923  -1.460  56.398  1.00 58.55 LIG 0.16  HD
ATOM     13 21HE GLN P   9      78.309  -1.181  55.929  1.00 58.55 LIG 0.16  HD
ENDBRANCH 8 9
ENDBRANCH 7 8
ENDBRANCH 6 7
BRANCH 6 14
ATOM     14  C   GLN P   9      78.386   0.501  60.492  1.00 54.72 LIG 0.24  C 
ATOM     15 O    GLN P   9      77.626  -0.423  60.178  1.00 59.60 LIG-0.27  OA
ATOM     16  N   PHE P  10      78.220   1.238  61.584  1.00 49.02 LIG-0.34  N 
ATOM     17 H    PHE P  10      78.765   1.851  61.843  1.00 49.02 LIG 0.16  HD
BRANCH 16 18
ATOM     18  CA  PHE P  10      77.061   1.050  62.446  1.00 50.33 LIG 0.19  C 
BRANCH 18 19
ATOM     19  C   PHE P  10      76.273   2.343  62.615  1.00 49.91 LIG 0.20  C 
ATOM     20 O    PHE P  10      75.099   2.313  62.990  1.00 45.93 LIG-0.65  OA
ATOM     21 OXT  PHE P  10      76.789   3.436  62.371  1.00 46.36 LIG-0.65  OA
ENDBRANCH 18 19
BRANCH 18 22
ATOM     22  CB  PHE P  10      77.483   0.498  63.811  1.00 51.88 LIG 0.07  C 
BRANCH 22 23
ATOM     23  CG  PHE P  10      78.306  -0.761  63.743  1.00 51.17 LIG-0.06  A 
ATOM     24  CD1 PHE P  10      79.378  -0.949  64.599  1.00 49.53 LIG 0.01  A 
ATOM     25  CE1 PHE P  10      80.143  -2.097  64.530  1.00 54.45 LIG 0.00  A 
ATOM     26  CZ  PHE P  10      79.853  -3.064  63.588  1.00 54.40 LIG 0.00  A 
ATOM     27  CE2 PHE P  10      78.793  -2.887  62.726  1.00 52.97 LIG 0.00  A 
ATOM     28  CD2 PHE P  10      78.030  -1.737  62.799  1.00 50.02 LIG 0.01  A 
ENDBRANCH 22 23
ENDBRANCH 18 22
ENDBRANCH 16 18
ENDBRANCH 6 14
ENDBRANCH 3 6
ENDBRANCH 1 2
BRANCH 1 29
ATOM     29  CB  TYR P   8      81.031  -3.654  60.375  1.00 54.61 LIG 0.07  C 
BRANCH 29 30
ATOM     30  CG  TYR P   8      80.410  -4.852  59.698  1.00 66.64 LIG-0.06  A 
ATOM     31  CD1 TYR P   8      79.863  -5.888  60.445  1.00 68.29 LIG 0.01  A 
ATOM     32  CE1 TYR P   8      79.298  -6.987  59.832  1.00 71.89 LIG 0.04  A 
ATOM     33  CZ  TYR P   8      79.280  -7.063  58.455  1.00 71.50 LIG 0.07  A 
ATOM     34  CE2 TYR P   8      79.820  -6.050  57.692  1.00 69.11 LIG 0.04  A 
ATOM     35  CD2 TYR P   8      80.383  -4.955  58.314  1.00 65.21 LIG 0.01  A 
BRANCH 33 36
ATOM     36 OH   TYR P   8      78.719  -8.157  57.841  1.00 83.55 LIG-0.36  OA
ATOM     37 HH   TYR P   8      78.068  -7.911  57.370  1.00 83.55 LIG 0.22  HD
ENDBRANCH 33 36
ENDBRANCH 29 30
ENDBRANCH 1 29
BRANCH 1 38
ATOM     38  N   TYR P   8      82.834  -2.418  59.240  1.00 59.31 LIG-0.35  N 
ATOM     39  C   VAL P   7      83.385  -1.865  58.164  1.00 65.10 LIG 0.24  C 
ATOM     40 O    VAL P   7      82.722  -1.445  57.206  1.00 66.40 LIG-0.27  OA
ATOM     41 H    TYR P   8      83.292  -2.755  59.885  1.00 59.31 LIG 0.16  HD
BRANCH 39 42
ATOM     42  CA  VAL P   7      84.905  -1.772  58.157  1.00 68.90 LIG 0.18  C 
BRANCH 42 43
ATOM     43  N   VAL P   7      85.354  -1.493  56.799  1.00 69.26 LIG-0.34  N 
ATOM     44  C   LEU P   6      86.561  -1.831  56.354  1.00 74.59 LIG 0.26  C 
ATOM     45 O    LEU P   6      87.379  -2.443  57.046  1.00 73.78 LIG-0.27  OA
ATOM     46 H    VAL P   7      84.768  -1.091  56.315  1.00 69.26 LIG 0.16  HD
BRANCH 44 47
ATOM     47  CA  LEU P   6      86.869  -1.431  54.909  1.00 78.06 LIG 0.40  C 
ATOM     48  N   LEU P   6      88.306  -1.466  54.662  1.00 74.40 LIG 0.61  N 
BRANCH 47 49
ATOM     49  CB  LEU P   6      86.133  -2.334  53.911  1.00 78.52 LIG 0.06  C 
BRANCH 49 50
ATOM     50  CG  LEU P   6      84.677  -2.059  53.522  1.00 77.43 LIG-0.02  C 
ATOM     51  CD2 LEU P   6      84.243  -0.642  53.876  1.00 73.93 LIG 0.01  C 
ATOM     52  CD1 LEU P   6      83.802  -3.091  54.202  1.00 75.78 LIG 0.01  C 
ENDBRANCH 49 50
ENDBRANCH 47 49
ENDBRANCH 44 47
ENDBRANCH 42 43
BRANCH 42 53
ATOM     53  CB  VAL P   7      85.399  -0.693  59.136  1.00 67.45 LIG 0.01  C 
ATOM     54  CG2 VAL P   7      85.461   0.656  58.443  1.00 67.18 LIG 0.01  C 
ATOM     55  CG1 VAL P   7      86.759  -1.065  59.692  1.00 63.58 LIG 0.01  C 
ENDBRANCH 42 53
ENDBRANCH 39 42
ENDBRANCH 1 38
TORSDOF 20
ENDMDL
MODEL 25
USER: ADFR SOLUTION from run 24
USER: SCORE 17.970240 LL:  -4.400 LR: -15.138 RR:   0.000 FEB:  -9.172
USER: RMSD 3.168513
USER: SEED 23
USER: STATUS no improvement in best in 19 clusters for 5 generations
USER: GENES 22
USER: genes 0 Translation |==|  0.44141 0.48535 0.39661
USER: genes 1 Rotation |==|  0.42839 0.44605 0.47231 0.99112
USER: genes 2 Torsion [N]-CA--C-[N] |==|  0.51074
USER: genes 3 Torsion [C]-N--CA-[CB] |==|  0.27222
USER: genes 4 Torsion [N]-CA--CB-[CG] |==|  0.03639
USER: genes 5 Torsion [CA]-CB--CG-[CD] |==|  0.22720
USER: genes 6 Torsion [CB]-CG--CD-[OE1] |==|  0.09717
USER: genes 7 Torsion [N]-CA--C-[N] |==|  0.28071
USER: genes 8 Torsion [C]-N--CA-[C] |==|  0.54198
USER: genes 9 Torsion [N]-CA--C-[O] |==|  0.45474
USER: genes 10 Torsion [N]-CA--CB-[CG] |==|  0.21918
USER: genes 11 Torsion [CA]-CB--CG-[CD1] |==|  0.71371
USER: genes 12 Torsion [C]-CA--CB-[CG] |==|  0.80752
USER: genes 13 Torsion [CA]-CB--CG-[CD1] |==|  0.65302
USER: genes 14 Torsion [CE1]-CZ--OH-[HH] |==|  0.78495
USER: genes 15 Torsion [C]-CA--N-[C] |==|  0.74356
USER: genes 16 Torsion [N]-C--CA-[N] |==|  0.35227
USER: genes 17 Torsion [C]-CA--N-[C] |==|  0.78793
USER: genes 18 Torsion [N]-C--CA-[N] |==|  0.08506
USER: genes 19 Torsion [C]-CA--CB-[CG] |==|  0.87056
USER: genes 20 Torsion [CA]-CB--CG-[CD2] |==|  0.77422
USER: genes 21 Torsion [C]-CA--CB-[CG2] |==|  0.39244
ROOT
ATOM      1  CA  TYR P   8      81.231  -2.497  58.879  1.00 57.99 LIG 0.18  C 
ENDROOT
BRANCH 1 2
ATOM      2  C   TYR P   8      80.962  -1.007  58.723  1.00 56.68 LIG 0.24  C 
ATOM      3  N   GLN P   9      79.705  -0.654  58.475  1.00 57.67 LIG-0.35  N 
ATOM      4 H    GLN P   9      79.068  -1.216  58.343  1.00 57.67 LIG 0.16  HD
ATOM      5 O    TYR P   8      81.886  -0.194  58.830  1.00 54.26 LIG-0.27  OA
BRANCH 3 6
ATOM      6  CA  GLN P   9      79.296   0.742  58.404  1.00 54.86 LIG 0.18  C 
BRANCH 6 7
ATOM      7  CB  GLN P   9      79.233   1.223  56.956  1.00 52.41 LIG 0.04  C 
BRANCH 7 8
ATOM      8  CG  GLN P   9      79.291   0.101  55.934  1.00 53.63 LIG 0.10  C 
BRANCH 8 9
ATOM      9  CD  GLN P   9      77.944  -0.554  55.724  1.00 56.56 LIG 0.21  C 
ATOM     10 OE1  GLN P   9      76.908   0.109  55.776  1.00 59.67 LIG-0.27  OA
ATOM     11  NE2 GLN P   9      77.949  -1.861  55.485  1.00 58.55 LIG-0.37  N 
ATOM     12 22HE GLN P   9      77.207  -2.278  55.360  1.00 58.55 LIG 0.16  HD
ATOM     13 21HE GLN P   9      78.693  -2.290  55.457  1.00 58.55 LIG 0.16  HD
ENDBRANCH 8 9
ENDBRANCH 7 8
ENDBRANCH 6 7
BRANCH 6 14
ATOM     14  C   GLN P   9      77.940   0.893  59.080  1.00 54.72 LIG 0.24  C 
ATOM     15 O    GLN P   9      76.907   0.558  58.490  1.00 59.60 LIG-0.27  OA
ATOM     16  N   PHE P  10      77.944   1.383  60.315  1.00 49.02 LIG-0.34  N 
ATOM     17 H    PHE P  10      78.655   1.574  60.759  1.00 49.02 LIG 0.16  HD
BRANCH 16 18
ATOM     18  CA  PHE P  10      76.697   1.636  61.025  1.00 50.33 LIG 0.19  C 
BRANCH 18 19
ATOM     19  C   PHE P  10      76.918   2.522  62.245  1.00 49.91 LIG 0.20  C 
ATOM     20 O    PHE P  10      75.964   3.083  62.788  1.00 45.93 LIG-0.65  OA
ATOM     21 OXT  PHE P  10      78.048   2.700  62.702  1.00 46.36 LIG-0.65  OA
ENDBRANCH 18 19
BRANCH 18 22
ATOM     22  CB  PHE P  10      76.027   0.321  61.432  1.00 51.88 LIG 0.07  C 
BRANCH 22 23
ATOM     23  CG  PHE P  10      76.623  -0.326  62.654  1.00 51.17 LIG-0.06  A 
ATOM     24  CD1 PHE P  10      77.466  -1.418  62.534  1.00 49.53 LIG 0.01  A 
ATOM     25  CE1 PHE P  10      78.002  -2.022  63.654  1.00 54.45 LIG 0.00  A 
ATOM     26  CZ  PHE P  10      77.684  -1.550  64.912  1.00 54.40 LIG 0.00  A 
ATOM     27  CE2 PHE P  10      76.841  -0.469  65.047  1.00 52.97 LIG 0.00  A 
ATOM     28  CD2 PHE P  10      76.307   0.134  63.923  1.00 50.02 LIG 0.01  A 
ENDBRANCH 22 23
ENDBRANCH 18 22
ENDBRANCH 16 18
ENDBRANCH 6 14
ENDBRANCH 3 6
ENDBRANCH 1 2
BRANCH 1 29
ATOM     29  CB  TYR P   8      80.305  -3.087  59.942  1.00 54.61 LIG 0.07  C 
BRANCH 29 30
ATOM     30  CG  TYR P   8      80.603  -2.640  61.353  1.00 66.64 LIG-0.06  A 
ATOM     31  CD1 TYR P   8      80.837  -3.569  62.359  1.00 68.29 LIG 0.01  A 
ATOM     32  CE1 TYR P   8      81.103  -3.167  63.651  1.00 71.89 LIG 0.04  A 
ATOM     33  CZ  TYR P   8      81.134  -1.822  63.952  1.00 71.50 LIG 0.07  A 
ATOM     34  CE2 TYR P   8      80.901  -0.881  62.972  1.00 69.11 LIG 0.04  A 
ATOM     35  CD2 TYR P   8      80.634  -1.292  61.683  1.00 65.21 LIG 0.01  A 
BRANCH 33 36
ATOM     36 OH   TYR P   8      81.399  -1.417  65.240  1.00 83.55 LIG-0.36  OA
ATOM     37 HH   TYR P   8      80.712  -1.518  65.712  1.00 83.55 LIG 0.22  HD
ENDBRANCH 33 36
ENDBRANCH 29 30
ENDBRANCH 1 29
BRANCH 1 38
ATOM     38  N   TYR P   8      82.630  -2.685  59.236  1.00 59.31 LIG-0.35  N 
ATOM     39  C   VAL P   7      83.585  -2.888  58.332  1.00 65.10 LIG 0.24  C 
ATOM     40 O    VAL P   7      83.353  -3.004  57.121  1.00 66.40 LIG-0.27  OA
ATOM     41 H    TYR P   8      82.780  -2.653  60.082  1.00 59.31 LIG 0.16  HD
BRANCH 39 42
ATOM     42  CA  VAL P   7      85.009  -2.978  58.863  1.00 68.90 LIG 0.18  C 
BRANCH 42 43
ATOM     43  N   VAL P   7      85.614  -4.214  58.382  1.00 69.26 LIG-0.34  N 
ATOM     44  C   LEU P   6      85.328  -5.406  58.898  1.00 74.59 LIG 0.26  C 
ATOM     45 O    LEU P   6      84.499  -5.561  59.798  1.00 73.78 LIG-0.27  OA
ATOM     46 H    VAL P   7      86.169  -4.099  57.736  1.00 69.26 LIG 0.16  HD
BRANCH 44 47
ATOM     47  CA  LEU P   6      86.083  -6.589  58.286  1.00 78.06 LIG 0.40  C 
ATOM     48  N   LEU P   6      87.400  -6.171  57.820  1.00 74.40 LIG 0.61  N 
BRANCH 47 49
ATOM     49  CB  LEU P   6      86.213  -7.745  59.286  1.00 78.52 LIG 0.06  C 
BRANCH 49 50
ATOM     50  CG  LEU P   6      86.656  -7.493  60.731  1.00 77.43 LIG-0.02  C 
ATOM     51  CD2 LEU P   6      88.170  -7.366  60.856  1.00 73.93 LIG 0.01  C 
ATOM     52  CD1 LEU P   6      86.123  -8.616  61.594  1.00 75.78 LIG 0.01  C 
ENDBRANCH 49 50
ENDBRANCH 47 49
ENDBRANCH 44 47
ENDBRANCH 42 43
BRANCH 42 53
ATOM     53  CB  VAL P   7      85.837  -1.754  58.438  1.00 67.45 LIG 0.01  C 
ATOM     54  CG2 VAL P   7      86.754  -1.322  59.569  1.00 67.18 LIG 0.01  C 
ATOM     55  CG1 VAL P   7      84.927  -0.613  58.031  1.00 63.58 LIG 0.01  C 
ENDBRANCH 42 53
ENDBRANCH 39 42
ENDBRANCH 1 38
TORSDOF 20
ENDMDL
MODEL 26
USER: ADFR SOLUTION from run 54
USER: SCORE 18.023066 LL:  -4.429 LR: -15.134 RR:   0.000 FEB:  -9.168
USER: RMSD 3.347963
USER: SEED 53
USER: STATUS no improvement in best in 12 clusters for 5 generations
USER: GENES 22
USER: genes 0 Translation |==|  0.42642 0.46345 0.41952
USER: genes 1 Rotation |==|  0.42542 0.45815 0.44143 0.98914
USER: genes 2 Torsion [N]-CA--C-[N] |==|  0.48829
USER: genes 3 Torsion [C]-N--CA-[CB] |==|  0.27777
USER: genes 4 Torsion [N]-CA--CB-[CG] |==|  0.61939
USER: genes 5 Torsion [CA]-CB--CG-[CD] |==|  0.84513
USER: genes 6 Torsion [CB]-CG--CD-[OE1] |==|  0.72605
USER: genes 7 Torsion [N]-CA--C-[N] |==|  0.28757
USER: genes 8 Torsion [C]-N--CA-[C] |==|  0.55395
USER: genes 9 Torsion [N]-CA--C-[O] |==|  0.93554
USER: genes 10 Torsion [N]-CA--CB-[CG] |==|  0.20391
USER: genes 11 Torsion [CA]-CB--CG-[CD1] |==|  0.69820
USER: genes 12 Torsion [C]-CA--CB-[CG] |==|  0.82837
USER: genes 13 Torsion [CA]-CB--CG-[CD1] |==|  0.15011
USER: genes 14 Torsion [CE1]-CZ--OH-[HH] |==|  0.25599
USER: genes 15 Torsion [C]-CA--N-[C] |==|  0.56914
USER: genes 16 Torsion [N]-C--CA-[N] |==|  0.44462
USER: genes 17 Torsion [C]-CA--N-[C] |==|  0.76139
USER: genes 18 Torsion [N]-C--CA-[N] |==|  0.91414
USER: genes 19 Torsion [C]-CA--CB-[CG] |==|  0.87929
USER: genes 20 Torsion [CA]-CB--CG-[CD2] |==|  0.81401
USER: genes 21 Torsion [C]-CA--CB-[CG2] |==|  0.57036
ROOT
ATOM      1  CA  TYR P   8      80.893  -2.989  59.291  1.00 57.99 LIG 0.18  C 
ENDROOT
BRANCH 1 2
ATOM      2  C   TYR P   8      80.816  -1.477  59.146  1.00 56.68 LIG 0.24  C 
ATOM      3  N   GLN P   9      79.643  -0.976  58.772  1.00 57.67 LIG-0.35  N 
ATOM      4 H    GLN P   9      78.964  -1.459  58.557  1.00 57.67 LIG 0.16  HD
ATOM      5 O    TYR P   8      81.810  -0.778  59.372  1.00 54.26 LIG-0.27  OA
BRANCH 3 6
ATOM      6  CA  GLN P   9      79.407   0.459  58.692  1.00 54.86 LIG 0.18  C 
BRANCH 6 7
ATOM      7  CB  GLN P   9      79.510   0.954  57.252  1.00 52.41 LIG 0.04  C 
BRANCH 7 8
ATOM      8  CG  GLN P   9      80.275   2.258  57.104  1.00 53.63 LIG 0.10  C 
BRANCH 8 9
ATOM      9  CD  GLN P   9      79.695   3.362  57.959  1.00 56.56 LIG 0.21  C 
ATOM     10 OE1  GLN P   9      78.936   4.200  57.473  1.00 59.67 LIG-0.27  OA
ATOM     11  NE2 GLN P   9      80.049   3.371  59.240  1.00 58.55 LIG-0.37  N 
ATOM     12 22HE GLN P   9      79.746   3.980  59.766  1.00 58.55 LIG 0.16  HD
ATOM     13 21HE GLN P   9      80.582   2.768  59.543  1.00 58.55 LIG 0.16  HD
ENDBRANCH 8 9
ENDBRANCH 7 8
ENDBRANCH 6 7
BRANCH 6 14
ATOM     14  C   GLN P   9      78.030   0.764  59.268  1.00 54.72 LIG 0.24  C 
ATOM     15 O    GLN P   9      77.010   0.515  58.614  1.00 59.60 LIG-0.27  OA
ATOM     16  N   PHE P  10      77.999   1.288  60.488  1.00 49.02 LIG-0.34  N 
ATOM     17 H    PHE P  10      78.695   1.422  60.976  1.00 49.02 LIG 0.16  HD
BRANCH 16 18
ATOM     18  CA  PHE P  10      76.739   1.685  61.101  1.00 50.33 LIG 0.19  C 
BRANCH 18 19
ATOM     19  C   PHE P  10      76.959   2.665  62.247  1.00 49.91 LIG 0.20  C 
ATOM     20 O    PHE P  10      78.044   2.708  62.832  1.00 45.93 LIG-0.65  OA
ATOM     21 OXT  PHE P  10      76.059   3.422  62.615  1.00 46.36 LIG-0.65  OA
ENDBRANCH 18 19
BRANCH 18 22
ATOM     22  CB  PHE P  10      75.962   0.459  61.588  1.00 51.88 LIG 0.07  C 
BRANCH 22 23
ATOM     23  CG  PHE P  10      76.530  -0.185  62.825  1.00 51.17 LIG-0.06  A 
ATOM     24  CD1 PHE P  10      77.165  -1.414  62.751  1.00 49.53 LIG 0.01  A 
ATOM     25  CE1 PHE P  10      77.674  -2.014  63.886  1.00 54.45 LIG 0.00  A 
ATOM     26  CZ  PHE P  10      77.537  -1.397  65.114  1.00 54.40 LIG 0.00  A 
ATOM     27  CE2 PHE P  10      76.901  -0.177  65.202  1.00 52.97 LIG 0.00  A 
ATOM     28  CD2 PHE P  10      76.394   0.420  64.064  1.00 50.02 LIG 0.01  A 
ENDBRANCH 22 23
ENDBRANCH 18 22
ENDBRANCH 16 18
ENDBRANCH 6 14
ENDBRANCH 3 6
ENDBRANCH 1 2
BRANCH 1 29
ATOM     29  CB  TYR P   8      79.931  -3.460  60.381  1.00 54.61 LIG 0.07  C 
BRANCH 29 30
ATOM     30  CG  TYR P   8      80.225  -2.916  61.758  1.00 66.64 LIG-0.06  A 
ATOM     31  CD1 TYR P   8      80.340  -1.549  61.973  1.00 68.29 LIG 0.01  A 
ATOM     32  CE1 TYR P   8      80.614  -1.046  63.228  1.00 71.89 LIG 0.04  A 
ATOM     33  CZ  TYR P   8      80.781  -1.914  64.287  1.00 71.50 LIG 0.07  A 
ATOM     34  CE2 TYR P   8      80.676  -3.276  64.098  1.00 69.11 LIG 0.04  A 
ATOM     35  CD2 TYR P   8      80.403  -3.769  62.839  1.00 65.21 LIG 0.01  A 
BRANCH 33 36
ATOM     36 OH   TYR P   8      81.055  -1.417  65.539  1.00 83.55 LIG-0.36  OA
ATOM     37 HH   TYR P   8      80.336  -1.305  65.959  1.00 83.55 LIG 0.22  HD
ENDBRANCH 33 36
ENDBRANCH 29 30
ENDBRANCH 1 29
BRANCH 1 38
ATOM     38  N   TYR P   8      82.266  -3.359  59.606  1.00 59.31 LIG-0.35  N 
ATOM     39  C   VAL P   7      82.772  -4.559  59.331  1.00 65.10 LIG 0.24  C 
ATOM     40 O    VAL P   7      82.099  -5.480  58.851  1.00 66.40 LIG-0.27  OA
ATOM     41 H    TYR P   8      82.717  -2.732  59.984  1.00 59.31 LIG 0.16  HD
BRANCH 39 42
ATOM     42  CA  VAL P   7      84.249  -4.756  59.644  1.00 68.90 LIG 0.18  C 
BRANCH 42 43
ATOM     43  N   VAL P   7      84.524  -6.183  59.744  1.00 69.26 LIG-0.34  N 
ATOM     44  C   LEU P   6      84.356  -6.874  60.867  1.00 74.59 LIG 0.26  C 
ATOM     45 O    LEU P   6      83.917  -6.366  61.903  1.00 73.78 LIG-0.27  OA
ATOM     46 H    VAL P   7      84.802  -6.535  59.010  1.00 69.26 LIG 0.16  HD
BRANCH 44 47
ATOM     47  CA  LEU P   6      84.724  -8.358  60.793  1.00 78.06 LIG 0.40  C 
ATOM     48  N   LEU P   6      84.488  -8.878  59.451  1.00 74.40 LIG 0.61  N 
BRANCH 47 49
ATOM     49  CB  LEU P   6      86.182  -8.593  61.208  1.00 78.52 LIG 0.06  C 
BRANCH 49 50
ATOM     50  CG  LEU P   6      87.302  -7.671  60.715  1.00 77.43 LIG-0.02  C 
ATOM     51  CD2 LEU P   6      87.526  -7.789  59.212  1.00 73.93 LIG 0.01  C 
ATOM     52  CD1 LEU P   6      88.561  -7.998  61.489  1.00 75.78 LIG 0.01  C 
ENDBRANCH 49 50
ENDBRANCH 47 49
ENDBRANCH 44 47
ENDBRANCH 42 43
BRANCH 42 53
ATOM     53  CB  VAL P   7      85.135  -4.095  58.574  1.00 67.45 LIG 0.01  C 
ATOM     54  CG2 VAL P   7      86.489  -4.779  58.517  1.00 67.18 LIG 0.01  C 
ATOM     55  CG1 VAL P   7      85.302  -2.616  58.864  1.00 63.58 LIG 0.01  C 
ENDBRANCH 42 53
ENDBRANCH 39 42
ENDBRANCH 1 38
TORSDOF 20
ENDMDL
MODEL 27
USER: ADFR SOLUTION from run 107
USER: SCORE 17.848269 LL:  -4.667 LR: -15.118 RR:   0.000 FEB:  -9.152
USER: RMSD 3.348078
USER: SEED 106
USER: STATUS no improvement in best in 15 clusters for 5 generations
USER: GENES 22
USER: genes 0 Translation |==|  0.44098 0.50119 0.39982
USER: genes 1 Rotation |==|  0.55641 0.47014 0.48647 0.99573
USER: genes 2 Torsion [N]-CA--C-[N] |==|  0.34536
USER: genes 3 Torsion [C]-N--CA-[CB] |==|  0.39812
USER: genes 4 Torsion [N]-CA--CB-[CG] |==|  0.61104
USER: genes 5 Torsion [CA]-CB--CG-[CD] |==|  0.75809
USER: genes 6 Torsion [CB]-CG--CD-[OE1] |==|  0.25806
USER: genes 7 Torsion [N]-CA--C-[N] |==|  0.36602
USER: genes 8 Torsion [C]-N--CA-[C] |==|  0.56331
USER: genes 9 Torsion [N]-CA--C-[O] |==|  0.52181
USER: genes 10 Torsion [N]-CA--CB-[CG] |==|  0.20798
USER: genes 11 Torsion [CA]-CB--CG-[CD1] |==|  0.91082
USER: genes 12 Torsion [C]-CA--CB-[CG] |==|  0.88429
USER: genes 13 Torsion [CA]-CB--CG-[CD1] |==|  0.79469
USER: genes 14 Torsion [CE1]-CZ--OH-[HH] |==|  0.58939
USER: genes 15 Torsion [C]-CA--N-[C] |==|  0.75254
USER: genes 16 Torsion [N]-C--CA-[N] |==|  0.41813
USER: genes 17 Torsion [C]-CA--N-[C] |==|  0.60479
USER: genes 18 Torsion [N]-C--CA-[N] |==|  0.84491
USER: genes 19 Torsion [C]-CA--CB-[CG] |==|  0.96373
USER: genes 20 Torsion [CA]-CB--CG-[CD2] |==|  0.71785
USER: genes 21 Torsion [C]-CA--CB-[CG2] |==|  0.84918
ROOT
ATOM      1  CA  TYR P   8      81.221  -2.140  58.937  1.00 57.99 LIG 0.18  C 
ENDROOT
BRANCH 1 2
ATOM      2  C   TYR P   8      80.827  -0.803  59.546  1.00 56.68 LIG 0.24  C 
ATOM      3  N   GLN P   9      80.177   0.042  58.753  1.00 57.67 LIG-0.35  N 
ATOM      4 H    GLN P   9      80.026  -0.105  57.919  1.00 57.67 LIG 0.16  HD
ATOM      5 O    TYR P   8      81.110  -0.547  60.721  1.00 54.26 LIG-0.27  OA
BRANCH 3 6
ATOM      6  CA  GLN P   9      79.655   1.312  59.240  1.00 54.86 LIG 0.18  C 
BRANCH 6 7
ATOM      7  CB  GLN P   9      79.790   2.403  58.181  1.00 52.41 LIG 0.04  C 
BRANCH 7 8
ATOM      8  CG  GLN P   9      80.207   3.753  58.740  1.00 53.63 LIG 0.10  C 
BRANCH 8 9
ATOM      9  CD  GLN P   9      79.023   4.575  59.197  1.00 56.56 LIG 0.21  C 
ATOM     10 OE1  GLN P   9      78.642   4.532  60.366  1.00 59.67 LIG-0.27  OA
ATOM     11  NE2 GLN P   9      78.433   5.330  58.276  1.00 58.55 LIG-0.37  N 
ATOM     12 22HE GLN P   9      77.754   5.815  58.488  1.00 58.55 LIG 0.16  HD
ATOM     13 21HE GLN P   9      78.727   5.333  57.469  1.00 58.55 LIG 0.16  HD
ENDBRANCH 8 9
ENDBRANCH 7 8
ENDBRANCH 6 7
BRANCH 6 14
ATOM     14  C   GLN P   9      78.196   1.126  59.637  1.00 54.72 LIG 0.24  C 
ATOM     15 O    GLN P   9      77.411   0.546  58.878  1.00 59.60 LIG-0.27  OA
ATOM     16  N   PHE P  10      77.839   1.603  60.824  1.00 49.02 LIG-0.34  N 
ATOM     17 H    PHE P  10      78.382   1.964  61.385  1.00 49.02 LIG 0.16  HD
BRANCH 16 18
ATOM     18  CA  PHE P  10      76.454   1.543  61.269  1.00 50.33 LIG 0.19  C 
BRANCH 18 19
ATOM     19  C   PHE P  10      76.163   2.591  62.337  1.00 49.91 LIG 0.20  C 
ATOM     20 O    PHE P  10      75.083   2.592  62.932  1.00 45.93 LIG-0.65  OA
ATOM     21 OXT  PHE P  10      76.993   3.458  62.616  1.00 46.36 LIG-0.65  OA
ENDBRANCH 18 19
BRANCH 18 22
ATOM     22  CB  PHE P  10      76.109   0.143  61.786  1.00 51.88 LIG 0.07  C 
BRANCH 22 23
ATOM     23  CG  PHE P  10      76.679  -0.176  63.142  1.00 51.17 LIG-0.06  A 
ATOM     24  CD1 PHE P  10      77.891   0.361  63.542  1.00 49.53 LIG 0.01  A 
ATOM     25  CE1 PHE P  10      78.423   0.059  64.779  1.00 54.45 LIG 0.00  A 
ATOM     26  CZ  PHE P  10      77.754  -0.801  65.627  1.00 54.40 LIG 0.00  A 
ATOM     27  CE2 PHE P  10      76.550  -1.348  65.240  1.00 52.97 LIG 0.00  A 
ATOM     28  CD2 PHE P  10      76.020  -1.042  64.000  1.00 50.02 LIG 0.01  A 
ENDBRANCH 22 23
ENDBRANCH 18 22
ENDBRANCH 16 18
ENDBRANCH 6 14
ENDBRANCH 3 6
ENDBRANCH 1 2
BRANCH 1 29
ATOM     29  CB  TYR P   8      80.452  -3.272  59.617  1.00 54.61 LIG 0.07  C 
BRANCH 29 30
ATOM     30  CG  TYR P   8      80.333  -3.140  61.116  1.00 66.64 LIG-0.06  A 
ATOM     31  CD1 TYR P   8      81.424  -3.380  61.941  1.00 68.29 LIG 0.01  A 
ATOM     32  CE1 TYR P   8      81.320  -3.266  63.311  1.00 71.89 LIG 0.04  A 
ATOM     33  CZ  TYR P   8      80.111  -2.913  63.874  1.00 71.50 LIG 0.07  A 
ATOM     34  CE2 TYR P   8      79.012  -2.673  63.077  1.00 69.11 LIG 0.04  A 
ATOM     35  CD2 TYR P   8      79.126  -2.790  61.707  1.00 65.21 LIG 0.01  A 
BRANCH 33 36
ATOM     36 OH   TYR P   8      80.003  -2.799  65.240  1.00 83.55 LIG-0.36  OA
ATOM     37 HH   TYR P   8      79.227  -3.016  65.479  1.00 83.55 LIG 0.22  HD
ENDBRANCH 33 36
ENDBRANCH 29 30
ENDBRANCH 1 29
BRANCH 1 38
ATOM     38  N   TYR P   8      82.659  -2.316  59.086  1.00 59.31 LIG-0.35  N 
ATOM     39  C   VAL P   7      83.536  -1.890  58.181  1.00 65.10 LIG 0.24  C 
ATOM     40 O    VAL P   7      83.201  -1.373  57.108  1.00 66.40 LIG-0.27  OA
ATOM     41 H    TYR P   8      82.886  -2.720  59.810  1.00 59.31 LIG 0.16  HD
BRANCH 39 42
ATOM     42  CA  VAL P   7      85.007  -2.074  58.529  1.00 68.90 LIG 0.18  C 
BRANCH 42 43
ATOM     43  N   VAL P   7      85.766  -2.242  57.297  1.00 69.26 LIG-0.34  N 
ATOM     44  C   LEU P   6      86.793  -3.079  57.190  1.00 74.59 LIG 0.26  C 
ATOM     45 O    LEU P   6      87.158  -3.808  58.116  1.00 73.78 LIG-0.27  OA
ATOM     46 H    VAL P   7      85.487  -1.751  56.648  1.00 69.26 LIG 0.16  HD
BRANCH 44 47
ATOM     47  CA  LEU P   6      87.490  -3.101  55.826  1.00 78.06 LIG 0.40  C 
ATOM     48  N   LEU P   6      86.533  -3.393  54.766  1.00 74.40 LIG 0.61  N 
BRANCH 47 49
ATOM     49  CB  LEU P   6      88.208  -1.774  55.546  1.00 78.52 LIG 0.06  C 
BRANCH 49 50
ATOM     50  CG  LEU P   6      87.940  -0.535  56.406  1.00 77.43 LIG-0.02  C 
ATOM     51  CD2 LEU P   6      87.003   0.452  55.720  1.00 73.93 LIG 0.01  C 
ATOM     52  CD1 LEU P   6      89.270   0.107  56.740  1.00 75.78 LIG 0.01  C 
ENDBRANCH 49 50
ENDBRANCH 47 49
ENDBRANCH 44 47
ENDBRANCH 42 43
BRANCH 42 53
ATOM     53  CB  VAL P   7      85.536  -0.884  59.348  1.00 67.45 LIG 0.01  C 
ATOM     54  CG2 VAL P   7      85.266   0.418  58.616  1.00 67.18 LIG 0.01  C 
ATOM     55  CG1 VAL P   7      87.020  -1.042  59.614  1.00 63.58 LIG 0.01  C 
ENDBRANCH 42 53
ENDBRANCH 39 42
ENDBRANCH 1 38
TORSDOF 20
ENDMDL
MODEL 28
USER: ADFR SOLUTION from run 188
USER: SCORE 17.692978 LL:  -4.694 LR: -15.121 RR:   0.000 FEB:  -9.155
USER: RMSD 2.854031
USER: SEED 187
USER: STATUS no improvement in best in 13 clusters for 5 generations
USER: GENES 22
USER: genes 0 Translation |==|  0.44325 0.49051 0.39854
USER: genes 1 Rotation |==|  0.54539 0.46465 0.47001 0.99577
USER: genes 2 Torsion [N]-CA--C-[N] |==|  0.36928
USER: genes 3 Torsion [C]-N--CA-[CB] |==|  0.37801
USER: genes 4 Torsion [N]-CA--CB-[CG] |==|  0.42497
USER: genes 5 Torsion [CA]-CB--CG-[CD] |==|  0.22991
USER: genes 6 Torsion [CB]-CG--CD-[OE1] |==|  0.02633
USER: genes 7 Torsion [N]-CA--C-[N] |==|  0.35390
USER: genes 8 Torsion [C]-N--CA-[C] |==|  0.57115
USER: genes 9 Torsion [N]-CA--C-[O] |==|  0.45933
USER: genes 10 Torsion [N]-CA--CB-[CG] |==|  0.21357
USER: genes 11 Torsion [CA]-CB--CG-[CD1] |==|  0.91389
USER: genes 12 Torsion [C]-CA--CB-[CG] |==|  0.87997
USER: genes 13 Torsion [CA]-CB--CG-[CD1] |==|  0.80812
USER: genes 14 Torsion [CE1]-CZ--OH-[HH] |==|  0.49951
USER: genes 15 Torsion [C]-CA--N-[C] |==|  0.74137
USER: genes 16 Torsion [N]-C--CA-[N] |==|  0.36175
USER: genes 17 Torsion [C]-CA--N-[C] |==|  0.58893
USER: genes 18 Torsion [N]-C--CA-[N] |==|  0.60722
USER: genes 19 Torsion [C]-CA--CB-[CG] |==|  0.75638
USER: genes 20 Torsion [CA]-CB--CG-[CD2] |==|  0.56602
USER: genes 21 Torsion [C]-CA--CB-[CG2] |==|  0.37734
ROOT
ATOM      1  CA  TYR P   8      81.272  -2.380  58.914  1.00 57.99 LIG 0.18  C 
ENDROOT
BRANCH 1 2
ATOM      2  C   TYR P   8      80.966  -0.995  59.464  1.00 56.68 LIG 0.24  C 
ATOM      3  N   GLN P   9      80.232  -0.200  58.693  1.00 57.67 LIG-0.35  N 
ATOM      4 H    GLN P   9      79.979  -0.406  57.896  1.00 57.67 LIG 0.16  HD
ATOM      5 O    TYR P   8      81.393  -0.658  60.573  1.00 54.26 LIG-0.27  OA
BRANCH 3 6
ATOM      6  CA  GLN P   9      79.784   1.111  59.142  1.00 54.86 LIG 0.18  C 
BRANCH 6 7
ATOM      7  CB  GLN P   9      79.967   2.159  58.047  1.00 52.41 LIG 0.04  C 
BRANCH 7 8
ATOM      8  CG  GLN P   9      78.996   3.323  58.142  1.00 53.63 LIG 0.10  C 
BRANCH 8 9
ATOM      9  CD  GLN P   9      79.457   4.374  59.126  1.00 56.56 LIG 0.21  C 
ATOM     10 OE1  GLN P   9      80.585   4.326  59.614  1.00 59.67 LIG-0.27  OA
ATOM     11  NE2 GLN P   9      78.586   5.333  59.425  1.00 58.55 LIG-0.37  N 
ATOM     12 22HE GLN P   9      78.802   5.953  59.980  1.00 58.55 LIG 0.16  HD
ATOM     13 21HE GLN P   9      77.806   5.333  59.063  1.00 58.55 LIG 0.16  HD
ENDBRANCH 8 9
ENDBRANCH 7 8
ENDBRANCH 6 7
BRANCH 6 14
ATOM     14  C   GLN P   9      78.322   1.017  59.557  1.00 54.72 LIG 0.24  C 
ATOM     15 O    GLN P   9      77.484   0.528  58.790  1.00 59.60 LIG-0.27  OA
ATOM     16  N   PHE P  10      78.018   1.471  60.768  1.00 49.02 LIG-0.34  N 
ATOM     17 H    PHE P  10      78.594   1.768  61.334  1.00 49.02 LIG 0.16  HD
BRANCH 16 18
ATOM     18  CA  PHE P  10      76.639   1.495  61.236  1.00 50.33 LIG 0.19  C 
BRANCH 18 19
ATOM     19  C   PHE P  10      76.427   2.565  62.300  1.00 49.91 LIG 0.20  C 
ATOM     20 O    PHE P  10      75.288   2.914  62.615  1.00 45.93 LIG-0.65  OA
ATOM     21 OXT  PHE P  10      77.386   3.105  62.855  1.00 46.36 LIG-0.65  OA
ENDBRANCH 18 19
BRANCH 18 22
ATOM     22  CB  PHE P  10      76.221   0.121  61.767  1.00 51.88 LIG 0.07  C 
BRANCH 22 23
ATOM     23  CG  PHE P  10      76.754  -0.202  63.138  1.00 51.17 LIG-0.06  A 
ATOM     24  CD1 PHE P  10      77.974   0.302  63.557  1.00 49.53 LIG 0.01  A 
ATOM     25  CE1 PHE P  10      78.472  -0.004  64.808  1.00 54.45 LIG 0.00  A 
ATOM     26  CZ  PHE P  10      77.760  -0.837  65.649  1.00 54.40 LIG 0.00  A 
ATOM     27  CE2 PHE P  10      76.549  -1.352  65.242  1.00 52.97 LIG 0.00  A 
ATOM     28  CD2 PHE P  10      76.053  -1.042  63.989  1.00 50.02 LIG 0.01  A 
ENDBRANCH 22 23
ENDBRANCH 18 22
ENDBRANCH 16 18
ENDBRANCH 6 14
ENDBRANCH 3 6
ENDBRANCH 1 2
BRANCH 1 29
ATOM     29  CB  TYR P   8      80.417  -3.427  59.627  1.00 54.61 LIG 0.07  C 
BRANCH 29 30
ATOM     30  CG  TYR P   8      80.320  -3.247  61.123  1.00 66.64 LIG-0.06  A 
ATOM     31  CD1 TYR P   8      81.424  -3.460  61.938  1.00 68.29 LIG 0.01  A 
ATOM     32  CE1 TYR P   8      81.340  -3.302  63.306  1.00 71.89 LIG 0.04  A 
ATOM     33  CZ  TYR P   8      80.139  -2.932  63.875  1.00 71.50 LIG 0.07  A 
ATOM     34  CE2 TYR P   8      79.029  -2.718  63.087  1.00 69.11 LIG 0.04  A 
ATOM     35  CD2 TYR P   8      79.123  -2.880  61.721  1.00 65.21 LIG 0.01  A 
BRANCH 33 36
ATOM     36 OH   TYR P   8      80.051  -2.774  65.238  1.00 83.55 LIG-0.36  OA
ATOM     37 HH   TYR P   8      79.269  -2.546  65.444  1.00 83.55 LIG 0.22  HD
ENDBRANCH 33 36
ENDBRANCH 29 30
ENDBRANCH 1 29
BRANCH 1 38
ATOM     38  N   TYR P   8      82.692  -2.651  59.091  1.00 59.31 LIG-0.35  N 
ATOM     39  C   VAL P   7      83.598  -2.396  58.151  1.00 65.10 LIG 0.24  C 
ATOM     40 O    VAL P   7      83.302  -1.974  57.025  1.00 66.40 LIG-0.27  OA
ATOM     41 H    TYR P   8      82.889  -2.990  59.856  1.00 59.31 LIG 0.16  HD
BRANCH 39 42
ATOM     42  CA  VAL P   7      85.051  -2.655  58.527  1.00 68.90 LIG 0.18  C 
BRANCH 42 43
ATOM     43  N   VAL P   7      85.672  -3.458  57.482  1.00 69.26 LIG-0.34  N 
ATOM     44  C   LEU P   6      86.635  -4.341  57.727  1.00 74.59 LIG 0.26  C 
ATOM     45 O    LEU P   6      87.049  -4.577  58.865  1.00 73.78 LIG-0.27  OA
ATOM     46 H    VAL P   7      85.358  -3.308  56.696  1.00 69.26 LIG 0.16  HD
BRANCH 44 47
ATOM     47  CA  LEU P   6      87.190  -5.073  56.502  1.00 78.06 LIG 0.40  C 
ATOM     48  N   LEU P   6      87.462  -6.470  56.818  1.00 74.40 LIG 0.61  N 
BRANCH 47 49
ATOM     49  CB  LEU P   6      86.229  -4.972  55.310  1.00 78.52 LIG 0.06  C 
BRANCH 49 50
ATOM     50  CG  LEU P   6      85.105  -5.994  55.114  1.00 77.43 LIG-0.02  C 
ATOM     51  CD2 LEU P   6      84.656  -6.087  53.660  1.00 73.93 LIG 0.01  C 
ATOM     52  CD1 LEU P   6      83.955  -5.615  56.023  1.00 75.78 LIG 0.01  C 
ENDBRANCH 49 50
ENDBRANCH 47 49
ENDBRANCH 44 47
ENDBRANCH 42 43
BRANCH 42 53
ATOM     53  CB  VAL P   7      85.813  -1.335  58.737  1.00 67.45 LIG 0.01  C 
ATOM     54  CG2 VAL P   7      86.673  -1.417  59.985  1.00 67.18 LIG 0.01  C 
ATOM     55  CG1 VAL P   7      84.843  -0.174  58.839  1.00 63.58 LIG 0.01  C 
ENDBRANCH 42 53
ENDBRANCH 39 42
ENDBRANCH 1 38
TORSDOF 20
ENDMDL
MODEL 29
USER: ADFR SOLUTION from run 79
USER: SCORE 17.873461 LL:  -4.634 LR: -15.110 RR:   0.000 FEB:  -9.144
USER: RMSD 3.564886
USER: SEED 78
USER: STATUS no improvement in best in 19 clusters for 5 generations
USER: GENES 22
USER: genes 0 Translation |==|  0.43106 0.50769 0.39379
USER: genes 1 Rotation |==|  0.44377 0.45153 0.48703 0.99429
USER: genes 2 Torsion [N]-CA--C-[N] |==|  0.47215
USER: genes 3 Torsion [C]-N--CA-[CB] |==|  0.31880
USER: genes 4 Torsion [N]-CA--CB-[CG] |==|  0.00110
USER: genes 5 Torsion [CA]-CB--CG-[CD] |==|  0.22398
USER: genes 6 Torsion [CB]-CG--CD-[OE1] |==|  0.00415
USER: genes 7 Torsion [N]-CA--C-[N] |==|  0.27327
USER: genes 8 Torsion [C]-N--CA-[C] |==|  0.53826
USER: genes 9 Torsion [N]-CA--C-[O] |==|  0.44736
USER: genes 10 Torsion [N]-CA--CB-[CG] |==|  0.22904
USER: genes 11 Torsion [CA]-CB--CG-[CD1] |==|  0.71203
USER: genes 12 Torsion [C]-CA--CB-[CG] |==|  0.80118
USER: genes 13 Torsion [CA]-CB--CG-[CD1] |==|  0.64577
USER: genes 14 Torsion [CE1]-CZ--OH-[HH] |==|  0.31901
USER: genes 15 Torsion [C]-CA--N-[C] |==|  0.77779
USER: genes 16 Torsion [N]-C--CA-[N] |==|  0.42321
USER: genes 17 Torsion [C]-CA--N-[C] |==|  0.63595
USER: genes 18 Torsion [N]-C--CA-[N] |==|  0.59142
USER: genes 19 Torsion [C]-CA--CB-[CG] |==|  0.84653
USER: genes 20 Torsion [CA]-CB--CG-[CD2] |==|  0.73955
USER: genes 21 Torsion [C]-CA--CB-[CG2] |==|  0.86292
ROOT
ATOM      1  CA  TYR P   8      80.998  -1.994  58.828  1.00 57.99 LIG 0.18  C 
ENDROOT
BRANCH 1 2
ATOM      2  C   TYR P   8      80.634  -0.518  58.766  1.00 56.68 LIG 0.24  C 
ATOM      3  N   GLN P   9      79.427  -0.224  58.294  1.00 57.67 LIG-0.35  N 
ATOM      4 H    GLN P   9      78.882  -0.809  57.976  1.00 57.67 LIG 0.16  HD
ATOM      5 O    TYR P   8      81.441   0.338  59.144  1.00 54.26 LIG-0.27  OA
BRANCH 3 6
ATOM      6  CA  GLN P   9      78.918   1.141  58.275  1.00 54.86 LIG 0.18  C 
BRANCH 6 7
ATOM      7  CB  GLN P   9      78.720   1.634  56.844  1.00 52.41 LIG 0.04  C 
BRANCH 7 8
ATOM      8  CG  GLN P   9      79.083   0.607  55.786  1.00 53.63 LIG 0.10  C 
BRANCH 8 9
ATOM      9  CD  GLN P   9      77.980  -0.403  55.565  1.00 56.56 LIG 0.21  C 
ATOM     10 OE1  GLN P   9      76.921  -0.323  56.187  1.00 59.67 LIG-0.27  OA
ATOM     11  NE2 GLN P   9      78.220  -1.362  54.676  1.00 58.55 LIG-0.37  N 
ATOM     12 22HE GLN P   9      77.623  -1.960  54.517  1.00 58.55 LIG 0.16  HD
ATOM     13 21HE GLN P   9      78.972  -1.385  54.261  1.00 58.55 LIG 0.16  HD
ENDBRANCH 8 9
ENDBRANCH 7 8
ENDBRANCH 6 7
BRANCH 6 14
ATOM     14  C   GLN P   9      77.604   1.187  59.046  1.00 54.72 LIG 0.24  C 
ATOM     15 O    GLN P   9      76.550   0.833  58.505  1.00 59.60 LIG-0.27  OA
ATOM     16  N   PHE P  10      77.668   1.608  60.304  1.00 49.02 LIG-0.34  N 
ATOM     17 H    PHE P  10      78.399   1.810  60.711  1.00 49.02 LIG 0.16  HD
BRANCH 16 18
ATOM     18  CA  PHE P  10      76.462   1.759  61.106  1.00 50.33 LIG 0.19  C 
BRANCH 18 19
ATOM     19  C   PHE P  10      76.730   2.559  62.374  1.00 49.91 LIG 0.20  C 
ATOM     20 O    PHE P  10      75.799   3.083  62.990  1.00 45.93 LIG-0.65  OA
ATOM     21 OXT  PHE P  10      77.878   2.706  62.801  1.00 46.36 LIG-0.65  OA
ENDBRANCH 18 19
BRANCH 18 22
ATOM     22  CB  PHE P  10      75.864   0.393  61.451  1.00 51.88 LIG 0.07  C 
BRANCH 22 23
ATOM     23  CG  PHE P  10      76.503  -0.283  62.635  1.00 51.17 LIG-0.06  A 
ATOM     24  CD1 PHE P  10      77.391  -1.331  62.455  1.00 49.53 LIG 0.01  A 
ATOM     25  CE1 PHE P  10      77.968  -1.961  63.539  1.00 54.45 LIG 0.00  A 
ATOM     26  CZ  PHE P  10      77.648  -1.561  64.821  1.00 54.40 LIG 0.00  A 
ATOM     27  CE2 PHE P  10      76.761  -0.524  65.015  1.00 52.97 LIG 0.00  A 
ATOM     28  CD2 PHE P  10      76.186   0.105  63.927  1.00 50.02 LIG 0.01  A 
ENDBRANCH 22 23
ENDBRANCH 18 22
ENDBRANCH 16 18
ENDBRANCH 6 14
ENDBRANCH 3 6
ENDBRANCH 1 2
BRANCH 1 29
ATOM     29  CB  TYR P   8      80.142  -2.700  59.879  1.00 54.61 LIG 0.07  C 
BRANCH 29 30
ATOM     30  CG  TYR P   8      80.490  -2.356  61.307  1.00 66.64 LIG-0.06  A 
ATOM     31  CD1 TYR P   8      80.747  -3.356  62.237  1.00 68.29 LIG 0.01  A 
ATOM     32  CE1 TYR P   8      81.060  -3.048  63.545  1.00 71.89 LIG 0.04  A 
ATOM     33  CZ  TYR P   8      81.113  -1.728  63.939  1.00 71.50 LIG 0.07  A 
ATOM     34  CE2 TYR P   8      80.858  -0.718  63.036  1.00 69.11 LIG 0.04  A 
ATOM     35  CD2 TYR P   8      80.545  -1.036  61.731  1.00 65.21 LIG 0.01  A 
BRANCH 33 36
ATOM     36 OH   TYR P   8      81.424  -1.417  65.242  1.00 83.55 LIG-0.36  OA
ATOM     37 HH   TYR P   8      82.157  -1.007  65.265  1.00 83.55 LIG 0.22  HD
ENDBRANCH 33 36
ENDBRANCH 29 30
ENDBRANCH 1 29
BRANCH 1 38
ATOM     38  N   TYR P   8      82.416  -2.114  59.137  1.00 59.31 LIG-0.35  N 
ATOM     39  C   VAL P   7      83.369  -1.967  58.220  1.00 65.10 LIG 0.24  C 
ATOM     40 O    VAL P   7      83.128  -1.787  57.019  1.00 66.40 LIG-0.27  OA
ATOM     41 H    TYR P   8      82.578  -2.288  59.963  1.00 59.31 LIG 0.16  HD
BRANCH 39 42
ATOM     42  CA  VAL P   7      84.805  -2.036  58.723  1.00 68.90 LIG 0.18  C 
BRANCH 42 43
ATOM     43  N   VAL P   7      85.660  -2.512  57.644  1.00 69.26 LIG-0.34  N 
ATOM     44  C   LEU P   6      86.541  -3.495  57.802  1.00 74.59 LIG 0.26  C 
ATOM     45 O    LEU P   6      86.674  -4.107  58.865  1.00 73.78 LIG-0.27  OA
ATOM     46 H    VAL P   7      85.541  -2.100  56.899  1.00 69.26 LIG 0.16  HD
BRANCH 44 47
ATOM     47  CA  LEU P   6      87.375  -3.842  56.565  1.00 78.06 LIG 0.40  C 
ATOM     48  N   LEU P   6      87.684  -5.266  56.537  1.00 74.40 LIG 0.61  N 
BRANCH 47 49
ATOM     49  CB  LEU P   6      86.656  -3.426  55.274  1.00 78.52 LIG 0.06  C 
BRANCH 49 50
ATOM     50  CG  LEU P   6      85.239  -3.919  54.966  1.00 77.43 LIG-0.02  C 
ATOM     51  CD2 LEU P   6      85.241  -5.181  54.111  1.00 73.93 LIG 0.01  C 
ATOM     52  CD1 LEU P   6      84.482  -2.795  54.291  1.00 75.78 LIG 0.01  C 
ENDBRANCH 49 50
ENDBRANCH 47 49
ENDBRANCH 44 47
ENDBRANCH 42 43
BRANCH 42 53
ATOM     53  CB  VAL P   7      85.277  -0.667  59.241  1.00 67.45 LIG 0.01  C 
ATOM     54  CG2 VAL P   7      84.969   0.415  58.221  1.00 67.18 LIG 0.01  C 
ATOM     55  CG1 VAL P   7      86.761  -0.699  59.545  1.00 63.58 LIG 0.01  C 
ENDBRANCH 42 53
ENDBRANCH 39 42
ENDBRANCH 1 38
TORSDOF 20
ENDMDL
MODEL 30
USER: ADFR SOLUTION from run 102
USER: SCORE 18.138514 LL:  -5.247 LR: -15.063 RR:   0.000 FEB:  -9.097
USER: RMSD 3.646617
USER: SEED 101
USER: STATUS no improvement in best in 13 clusters for 5 generations
USER: GENES 22
USER: genes 0 Translation |==|  0.41237 0.49166 0.40745
USER: genes 1 Rotation |==|  0.44489 0.78877 0.56806 0.89868
USER: genes 2 Torsion [N]-CA--C-[N] |==|  0.18336
USER: genes 3 Torsion [C]-N--CA-[CB] |==|  0.40330
USER: genes 4 Torsion [N]-CA--CB-[CG] |==|  0.51717
USER: genes 5 Torsion [CA]-CB--CG-[CD] |==|  0.16101
USER: genes 6 Torsion [CB]-CG--CD-[OE1] |==|  0.03195
USER: genes 7 Torsion [N]-CA--C-[N] |==|  0.29176
USER: genes 8 Torsion [C]-N--CA-[C] |==|  0.76538
USER: genes 9 Torsion [N]-CA--C-[O] |==|  0.44321
USER: genes 10 Torsion [N]-CA--CB-[CG] |==|  0.85341
USER: genes 11 Torsion [CA]-CB--CG-[CD1] |==|  0.68823
USER: genes 12 Torsion [C]-CA--CB-[CG] |==|  0.41820
USER: genes 13 Torsion [CA]-CB--CG-[CD1] |==|  0.87444
USER: genes 14 Torsion [CE1]-CZ--OH-[HH] |==|  0.74412
USER: genes 15 Torsion [C]-CA--N-[C] |==|  0.75717
USER: genes 16 Torsion [N]-C--CA-[N] |==|  0.25136
USER: genes 17 Torsion [C]-CA--N-[C] |==|  0.76640
USER: genes 18 Torsion [N]-C--CA-[N] |==|  0.48685
USER: genes 19 Torsion [C]-CA--CB-[CG] |==|  0.83318
USER: genes 20 Torsion [CA]-CB--CG-[CD2] |==|  0.58564
USER: genes 21 Torsion [C]-CA--CB-[CG2] |==|  0.46919
ROOT
ATOM      1  CA  TYR P   8      80.577  -2.355  59.074  1.00 57.99 LIG 0.18  C 
ENDROOT
BRANCH 1 2
ATOM      2  C   TYR P   8      80.272  -0.940  59.546  1.00 56.68 LIG 0.24  C 
ATOM      3  N   GLN P   9      79.257  -0.323  58.949  1.00 57.67 LIG-0.35  N 
ATOM      4 H    GLN P   9      78.817  -0.655  58.289  1.00 57.67 LIG 0.16  HD
ATOM      5 O    TYR P   8      80.949  -0.422  60.439  1.00 54.26 LIG-0.27  OA
BRANCH 3 6
ATOM      6  CA  GLN P   9      78.797   0.992  59.375  1.00 54.86 LIG 0.18  C 
BRANCH 6 7
ATOM      7  CB  GLN P   9      78.320   1.819  58.183  1.00 52.41 LIG 0.04  C 
BRANCH 7 8
ATOM      8  CG  GLN P   9      77.965   3.253  58.534  1.00 53.63 LIG 0.10  C 
BRANCH 8 9
ATOM      9  CD  GLN P   9      79.127   3.995  59.156  1.00 56.56 LIG 0.21  C 
ATOM     10 OE1  GLN P   9      80.260   3.515  59.139  1.00 59.67 LIG-0.27  OA
ATOM     11  NE2 GLN P   9      78.853   5.171  59.711  1.00 58.55 LIG-0.37  N 
ATOM     12 22HE GLN P   9      79.481   5.630  60.078  1.00 58.55 LIG 0.16  HD
ATOM     13 21HE GLN P   9      78.049   5.474  59.703  1.00 58.55 LIG 0.16  HD
ENDBRANCH 8 9
ENDBRANCH 7 8
ENDBRANCH 6 7
BRANCH 6 14
ATOM     14  C   GLN P   9      77.676   0.817  60.391  1.00 54.72 LIG 0.24  C 
ATOM     15 O    GLN P   9      76.549   0.464  60.024  1.00 59.60 LIG-0.27  OA
ATOM     16  N   PHE P  10      77.985   1.049  61.662  1.00 49.02 LIG-0.34  N 
ATOM     17 H    PHE P  10      78.774   1.247  61.941  1.00 49.02 LIG 0.16  HD
BRANCH 16 18
ATOM     18  CA  PHE P  10      76.970   0.982  62.704  1.00 50.33 LIG 0.19  C 
BRANCH 18 19
ATOM     19  C   PHE P  10      76.207   2.296  62.828  1.00 49.91 LIG 0.20  C 
ATOM     20 O    PHE P  10      75.097   2.324  63.364  1.00 45.93 LIG-0.65  OA
ATOM     21 OXT  PHE P  10      76.678   3.346  62.387  1.00 46.36 LIG-0.65  OA
ENDBRANCH 18 19
BRANCH 18 22
ATOM     22  CB  PHE P  10      77.595   0.599  64.048  1.00 51.88 LIG 0.07  C 
BRANCH 22 23
ATOM     23  CG  PHE P  10      78.434  -0.652  64.007  1.00 51.17 LIG-0.06  A 
ATOM     24  CD1 PHE P  10      78.025  -1.797  64.670  1.00 49.53 LIG 0.01  A 
ATOM     25  CE1 PHE P  10      78.799  -2.940  64.646  1.00 54.45 LIG 0.00  A 
ATOM     26  CZ  PHE P  10      80.004  -2.944  63.972  1.00 54.40 LIG 0.00  A 
ATOM     27  CE2 PHE P  10      80.426  -1.810  63.313  1.00 52.97 LIG 0.00  A 
ATOM     28  CD2 PHE P  10      79.648  -0.667  63.339  1.00 50.02 LIG 0.01  A 
ENDBRANCH 22 23
ENDBRANCH 18 22
ENDBRANCH 16 18
ENDBRANCH 6 14
ENDBRANCH 3 6
ENDBRANCH 1 2
BRANCH 1 29
ATOM     29  CB  TYR P   8      81.627  -2.993  59.982  1.00 54.61 LIG 0.07  C 
BRANCH 29 30
ATOM     30  CG  TYR P   8      81.526  -4.495  60.101  1.00 66.64 LIG-0.06  A 
ATOM     31  CD1 TYR P   8      80.298  -5.112  60.301  1.00 68.29 LIG 0.01  A 
ATOM     32  CE1 TYR P   8      80.200  -6.483  60.416  1.00 71.89 LIG 0.04  A 
ATOM     33  CZ  TYR P   8      81.340  -7.255  60.336  1.00 71.50 LIG 0.07  A 
ATOM     34  CE2 TYR P   8      82.571  -6.666  60.143  1.00 69.11 LIG 0.04  A 
ATOM     35  CD2 TYR P   8      82.659  -5.294  60.030  1.00 65.21 LIG 0.01  A 
BRANCH 33 36
ATOM     36 OH   TYR P   8      81.247  -8.622  60.451  1.00 83.55 LIG-0.36  OA
ATOM     37 HH   TYR P   8      81.351  -8.844  61.255  1.00 83.55 LIG 0.22  HD
ENDBRANCH 33 36
ENDBRANCH 29 30
ENDBRANCH 1 29
BRANCH 1 38
ATOM     38  N   TYR P   8      81.039  -2.298  57.694  1.00 59.31 LIG-0.35  N 
ATOM     39  C   VAL P   7      80.210  -2.328  56.654  1.00 65.10 LIG 0.24  C 
ATOM     40 O    VAL P   7      78.987  -2.478  56.770  1.00 66.40 LIG-0.27  OA
ATOM     41 H    TYR P   8      81.894  -2.243  57.615  1.00 59.31 LIG 0.16  HD
BRANCH 39 42
ATOM     42  CA  VAL P   7      80.847  -2.172  55.280  1.00 68.90 LIG 0.18  C 
BRANCH 42 43
ATOM     43  N   VAL P   7      81.189  -3.491  54.765  1.00 69.26 LIG-0.34  N 
ATOM     44  C   LEU P   6      82.319  -4.118  55.079  1.00 74.59 LIG 0.26  C 
ATOM     45 O    LEU P   6      83.147  -3.646  55.862  1.00 73.78 LIG-0.27  OA
ATOM     46 H    VAL P   7      80.593  -3.825  54.243  1.00 69.26 LIG 0.16  HD
BRANCH 44 47
ATOM     47  CA  LEU P   6      82.523  -5.485  54.420  1.00 78.06 LIG 0.40  C 
ATOM     48  N   LEU P   6      83.838  -6.021  54.749  1.00 74.40 LIG 0.61  N 
BRANCH 47 49
ATOM     49  CB  LEU P   6      81.424  -6.472  54.835  1.00 78.52 LIG 0.06  C 
BRANCH 49 50
ATOM     50  CG  LEU P   6      81.215  -6.849  56.305  1.00 77.43 LIG-0.02  C 
ATOM     51  CD2 LEU P   6      80.688  -8.270  56.467  1.00 73.93 LIG 0.01  C 
ATOM     52  CD1 LEU P   6      80.274  -5.838  56.924  1.00 75.78 LIG 0.01  C 
ENDBRANCH 49 50
ENDBRANCH 47 49
ENDBRANCH 44 47
ENDBRANCH 42 43
BRANCH 42 53
ATOM     53  CB  VAL P   7      79.907  -1.428  54.315  1.00 67.45 LIG 0.01  C 
ATOM     54  CG2 VAL P   7      80.651  -1.042  53.050  1.00 67.18 LIG 0.01  C 
ATOM     55  CG1 VAL P   7      79.327  -0.198  54.984  1.00 63.58 LIG 0.01  C 
ENDBRANCH 42 53
ENDBRANCH 39 42
ENDBRANCH 1 38
TORSDOF 20
ENDMDL
MODEL 31
USER: ADFR SOLUTION from run 16
USER: SCORE 18.844732 LL:  -4.724 LR: -15.048 RR:   0.000 FEB:  -9.082
USER: RMSD 4.411207
USER: SEED 161117
USER: STATUS no improvement in best in 13 clusters for 5 generations
USER: GENES 22
USER: genes 0 Translation |==|  0.43210 0.57838 0.41539
USER: genes 1 Rotation |==|  0.82305 0.12502 0.53446 0.56198
USER: genes 2 Torsion [N]-CA--C-[N] |==|  0.50211
USER: genes 3 Torsion [C]-N--CA-[CB] |==|  0.78158
USER: genes 4 Torsion [N]-CA--CB-[CG] |==|  0.18200
USER: genes 5 Torsion [CA]-CB--CG-[CD] |==|  0.64394
USER: genes 6 Torsion [CB]-CG--CD-[OE1] |==|  0.02383
USER: genes 7 Torsion [N]-CA--C-[N] |==|  0.17949
USER: genes 8 Torsion [C]-N--CA-[C] |==|  0.53863
USER: genes 9 Torsion [N]-CA--C-[O] |==|  0.44447
USER: genes 10 Torsion [N]-CA--CB-[CG] |==|  0.25237
USER: genes 11 Torsion [CA]-CB--CG-[CD1] |==|  0.82517
USER: genes 12 Torsion [C]-CA--CB-[CG] |==|  0.51669
USER: genes 13 Torsion [CA]-CB--CG-[CD1] |==|  0.70704
USER: genes 14 Torsion [CE1]-CZ--OH-[HH] |==|  0.94751
USER: genes 15 Torsion [C]-CA--N-[C] |==|  0.68939
USER: genes 16 Torsion [N]-C--CA-[N] |==|  0.27806
USER: genes 17 Torsion [C]-CA--N-[C] |==|  0.71257
USER: genes 18 Torsion [N]-C--CA-[N] |==|  0.24727
USER: genes 19 Torsion [C]-CA--CB-[CG] |==|  0.81806
USER: genes 20 Torsion [CA]-CB--CG-[CD2] |==|  0.64561
USER: genes 21 Torsion [C]-CA--CB-[CG2] |==|  0.15790
ROOT
ATOM      1  CA  TYR P   8      81.021  -0.403  59.217  1.00 57.99 LIG 0.18  C 
ENDROOT
BRANCH 1 2
ATOM      2  C   TYR P   8      79.639   0.120  58.855  1.00 56.68 LIG 0.24  C 
ATOM      3  N   GLN P   9      79.570   1.386  58.457  1.00 57.67 LIG-0.35  N 
ATOM      4 H    GLN P   9      80.242   1.923  58.452  1.00 57.67 LIG 0.16  HD
ATOM      5 O    TYR P   8      78.653  -0.620  58.935  1.00 54.26 LIG-0.27  OA
BRANCH 3 6
ATOM      6  CA  GLN P   9      78.326   1.980  57.986  1.00 54.86 LIG 0.18  C 
BRANCH 6 7
ATOM      7  CB  GLN P   9      78.030   1.566  56.547  1.00 52.41 LIG 0.04  C 
BRANCH 7 8
ATOM      8  CG  GLN P   9      77.756   0.082  56.378  1.00 53.63 LIG 0.10  C 
BRANCH 8 9
ATOM      9  CD  GLN P   9      78.610  -0.539  55.297  1.00 56.56 LIG 0.21  C 
ATOM     10 OE1  GLN P   9      79.523   0.099  54.773  1.00 59.67 LIG-0.27  OA
ATOM     11  NE2 GLN P   9      78.320  -1.790  54.954  1.00 58.55 LIG-0.37  N 
ATOM     12 22HE GLN P   9      78.778  -2.186  54.343  1.00 58.55 LIG 0.16  HD
ATOM     13 21HE GLN P   9      77.674  -2.204  55.343  1.00 58.55 LIG 0.16  HD
ENDBRANCH 8 9
ENDBRANCH 7 8
ENDBRANCH 6 7
BRANCH 6 14
ATOM     14  C   GLN P   9      77.194   1.550  58.912  1.00 54.72 LIG 0.24  C 
ATOM     15 O    GLN P   9      76.280   0.833  58.490  1.00 59.60 LIG-0.27  OA
ATOM     16  N   PHE P  10      77.262   1.976  60.168  1.00 49.02 LIG-0.34  N 
ATOM     17 H    PHE P  10      77.915   2.433  60.491  1.00 49.02 LIG 0.16  HD
BRANCH 16 18
ATOM     18  CA  PHE P  10      76.195   1.684  61.116  1.00 50.33 LIG 0.19  C 
BRANCH 18 19
ATOM     19  C   PHE P  10      76.313   2.539  62.372  1.00 49.91 LIG 0.20  C 
ATOM     20 O    PHE P  10      75.337   2.708  63.106  1.00 45.93 LIG-0.65  OA
ATOM     21 OXT  PHE P  10      77.378   3.083  62.671  1.00 46.36 LIG-0.65  OA
ENDBRANCH 18 19
BRANCH 18 22
ATOM     22  CB  PHE P  10      76.184   0.197  61.481  1.00 51.88 LIG 0.07  C 
BRANCH 22 23
ATOM     23  CG  PHE P  10      77.021  -0.154  62.682  1.00 51.17 LIG-0.06  A 
ATOM     24  CD1 PHE P  10      78.392   0.041  62.668  1.00 49.53 LIG 0.01  A 
ATOM     25  CE1 PHE P  10      79.164  -0.293  63.763  1.00 54.45 LIG 0.00  A 
ATOM     26  CZ  PHE P  10      78.572  -0.845  64.882  1.00 54.40 LIG 0.00  A 
ATOM     27  CE2 PHE P  10      77.210  -1.051  64.907  1.00 52.97 LIG 0.00  A 
ATOM     28  CD2 PHE P  10      76.440  -0.714  63.809  1.00 50.02 LIG 0.01  A 
ENDBRANCH 22 23
ENDBRANCH 18 22
ENDBRANCH 16 18
ENDBRANCH 6 14
ENDBRANCH 3 6
ENDBRANCH 1 2
BRANCH 1 29
ATOM     29  CB  TYR P   8      81.970  -0.239  58.031  1.00 54.61 LIG 0.07  C 
BRANCH 29 30
ATOM     30  CG  TYR P   8      83.335  -0.855  58.227  1.00 66.64 LIG-0.06  A 
ATOM     31  CD1 TYR P   8      84.446  -0.059  58.473  1.00 68.29 LIG 0.01  A 
ATOM     32  CE1 TYR P   8      85.696  -0.615  58.648  1.00 71.89 LIG 0.04  A 
ATOM     33  CZ  TYR P   8      85.848  -1.984  58.573  1.00 71.50 LIG 0.07  A 
ATOM     34  CE2 TYR P   8      84.761  -2.795  58.326  1.00 69.11 LIG 0.04  A 
ATOM     35  CD2 TYR P   8      83.515  -2.229  58.152  1.00 65.21 LIG 0.01  A 
BRANCH 33 36
ATOM     36 OH   TYR P   8      87.092  -2.542  58.746  1.00 83.55 LIG-0.36  OA
ATOM     37 HH   TYR P   8      87.682  -1.955  58.629  1.00 83.55 LIG 0.22  HD
ENDBRANCH 33 36
ENDBRANCH 29 30
ENDBRANCH 1 29
BRANCH 1 38
ATOM     38  N   TYR P   8      80.904  -1.801  59.609  1.00 59.31 LIG-0.35  N 
ATOM     39  C   VAL P   7      81.107  -2.222  60.854  1.00 65.10 LIG 0.24  C 
ATOM     40 O    VAL P   7      81.479  -1.472  61.767  1.00 66.40 LIG-0.27  OA
ATOM     41 H    TYR P   8      80.693  -2.327  58.961  1.00 59.31 LIG 0.16  HD
BRANCH 39 42
ATOM     42  CA  VAL P   7      80.859  -3.701  61.115  1.00 68.90 LIG 0.18  C 
BRANCH 42 43
ATOM     43  N   VAL P   7      82.138  -4.398  61.127  1.00 69.26 LIG-0.34  N 
ATOM     44  C   LEU P   6      82.563  -5.143  60.110  1.00 74.59 LIG 0.26  C 
ATOM     45 O    LEU P   6      81.924  -5.268  59.063  1.00 73.78 LIG-0.27  OA
ATOM     46 H    VAL P   7      82.590  -4.283  61.849  1.00 69.26 LIG 0.16  HD
BRANCH 44 47
ATOM     47  CA  LEU P   6      83.919  -5.825  60.312  1.00 78.06 LIG 0.40  C 
ATOM     48  N   LEU P   6      83.748  -7.132  60.935  1.00 74.40 LIG 0.61  N 
BRANCH 47 49
ATOM     49  CB  LEU P   6      84.677  -5.961  58.985  1.00 78.52 LIG 0.06  C 
BRANCH 49 50
ATOM     50  CG  LEU P   6      84.145  -6.855  57.860  1.00 77.43 LIG-0.02  C 
ATOM     51  CD2 LEU P   6      85.194  -7.844  57.364  1.00 73.93 LIG 0.01  C 
ATOM     52  CD1 LEU P   6      83.652  -5.965  56.740  1.00 75.78 LIG 0.01  C 
ENDBRANCH 49 50
ENDBRANCH 47 49
ENDBRANCH 44 47
ENDBRANCH 42 43
BRANCH 42 53
ATOM     53  CB  VAL P   7      80.102  -3.911  62.438  1.00 67.45 LIG 0.01  C 
ATOM     54  CG2 VAL P   7      78.794  -3.142  62.423  1.00 67.18 LIG 0.01  C 
ATOM     55  CG1 VAL P   7      80.957  -3.477  63.612  1.00 63.58 LIG 0.01  C 
ENDBRANCH 42 53
ENDBRANCH 39 42
ENDBRANCH 1 38
TORSDOF 20
ENDMDL
MODEL 32
USER: ADFR SOLUTION from run 51
USER: SCORE 18.130591 LL:  -5.437 LR: -14.928 RR:   0.000 FEB:  -8.962
USER: RMSD 4.097988
USER: SEED 50
USER: STATUS no improvement in best in 19 clusters for 5 generations
USER: GENES 22
USER: genes 0 Translation |==|  0.42505 0.49287 0.41356
USER: genes 1 Rotation |==|  0.42460 0.75218 0.53814 0.92340
USER: genes 2 Torsion [N]-CA--C-[N] |==|  0.17086
USER: genes 3 Torsion [C]-N--CA-[CB] |==|  0.39509
USER: genes 4 Torsion [N]-CA--CB-[CG] |==|  0.46863
USER: genes 5 Torsion [CA]-CB--CG-[CD] |==|  0.15262
USER: genes 6 Torsion [CB]-CG--CD-[OE1] |==|  0.04241
USER: genes 7 Torsion [N]-CA--C-[N] |==|  0.29389
USER: genes 8 Torsion [C]-N--CA-[C] |==|  0.59202
USER: genes 9 Torsion [N]-CA--C-[O] |==|  0.95932
USER: genes 10 Torsion [N]-CA--CB-[CG] |==|  0.21060
USER: genes 11 Torsion [CA]-CB--CG-[CD1] |==|  0.87767
USER: genes 12 Torsion [C]-CA--CB-[CG] |==|  0.19923
USER: genes 13 Torsion [CA]-CB--CG-[CD1] |==|  0.54369
USER: genes 14 Torsion [CE1]-CZ--OH-[HH] |==|  0.67110
USER: genes 15 Torsion [C]-CA--N-[C] |==|  0.71174
USER: genes 16 Torsion [N]-C--CA-[N] |==|  0.94212
USER: genes 17 Torsion [C]-CA--N-[C] |==|  0.80171
USER: genes 18 Torsion [N]-C--CA-[N] |==|  0.57122
USER: genes 19 Torsion [C]-CA--CB-[CG] |==|  0.80082
USER: genes 20 Torsion [CA]-CB--CG-[CD2] |==|  0.65976
USER: genes 21 Torsion [C]-CA--CB-[CG2] |==|  0.52507
ROOT
ATOM      1  CA  TYR P   8      80.863  -2.327  59.184  1.00 57.99 LIG 0.18  C 
ENDROOT
BRANCH 1 2
ATOM      2  C   TYR P   8      80.550  -0.861  59.445  1.00 56.68 LIG 0.24  C 
ATOM      3  N   GLN P   9      79.781  -0.251  58.549  1.00 57.67 LIG-0.35  N 
ATOM      4 H    GLN P   9      79.509  -0.619  57.821  1.00 57.67 LIG 0.16  HD
ATOM      5 O    TYR P   8      81.003  -0.297  60.446  1.00 54.26 LIG-0.27  OA
BRANCH 3 6
ATOM      6  CA  GLN P   9      79.325   1.121  58.732  1.00 54.86 LIG 0.18  C 
BRANCH 6 7
ATOM      7  CB  GLN P   9      79.316   1.877  57.405  1.00 52.41 LIG 0.04  C 
BRANCH 7 8
ATOM      8  CG  GLN P   9      78.603   3.216  57.467  1.00 53.63 LIG 0.10  C 
BRANCH 8 9
ATOM      9  CD  GLN P   9      79.156   4.111  58.553  1.00 56.56 LIG 0.21  C 
ATOM     10 OE1  GLN P   9      80.241   3.864  59.078  1.00 59.67 LIG-0.27  OA
ATOM     11  NE2 GLN P   9      78.414   5.159  58.897  1.00 58.55 LIG-0.37  N 
ATOM     12 22HE GLN P   9      78.687   5.697  59.510  1.00 58.55 LIG 0.16  HD
ATOM     13 21HE GLN P   9      77.661   5.299  58.507  1.00 58.55 LIG 0.16  HD
ENDBRANCH 8 9
ENDBRANCH 7 8
ENDBRANCH 6 7
BRANCH 6 14
ATOM     14  C   GLN P   9      77.932   1.100  59.348  1.00 54.72 LIG 0.24  C 
ATOM     15 O    GLN P   9      76.953   0.776  58.666  1.00 59.60 LIG-0.27  OA
ATOM     16  N   PHE P  10      77.846   1.430  60.631  1.00 49.02 LIG-0.34  N 
ATOM     17 H    PHE P  10      78.522   1.609  61.133  1.00 49.02 LIG 0.16  HD
BRANCH 16 18
ATOM     18  CA  PHE P  10      76.554   1.513  61.298  1.00 50.33 LIG 0.19  C 
BRANCH 18 19
ATOM     19  C   PHE P  10      76.546   2.595  62.371  1.00 49.91 LIG 0.20  C 
ATOM     20 O    PHE P  10      77.605   3.084  62.771  1.00 45.93 LIG-0.65  OA
ATOM     21 OXT  PHE P  10      75.488   2.992  62.863  1.00 46.36 LIG-0.65  OA
ENDBRANCH 18 19
BRANCH 18 22
ATOM     22  CB  PHE P  10      76.166   0.160  61.901  1.00 51.88 LIG 0.07  C 
BRANCH 22 23
ATOM     23  CG  PHE P  10      76.903  -0.190  63.167  1.00 51.17 LIG-0.06  A 
ATOM     24  CD1 PHE P  10      78.269   0.018  63.268  1.00 49.53 LIG 0.01  A 
ATOM     25  CE1 PHE P  10      78.950  -0.316  64.422  1.00 54.45 LIG 0.00  A 
ATOM     26  CZ  PHE P  10      78.272  -0.879  65.485  1.00 54.40 LIG 0.00  A 
ATOM     27  CE2 PHE P  10      76.914  -1.098  65.396  1.00 52.97 LIG 0.00  A 
ATOM     28  CD2 PHE P  10      76.236  -0.762  64.239  1.00 50.02 LIG 0.01  A 
ENDBRANCH 22 23
ENDBRANCH 18 22
ENDBRANCH 16 18
ENDBRANCH 6 14
ENDBRANCH 3 6
ENDBRANCH 1 2
BRANCH 1 29
ATOM     29  CB  TYR P   8      81.679  -2.902  60.341  1.00 54.61 LIG 0.07  C 
BRANCH 29 30
ATOM     30  CG  TYR P   8      80.904  -3.099  61.621  1.00 66.64 LIG-0.06  A 
ATOM     31  CD1 TYR P   8      81.562  -3.299  62.828  1.00 68.29 LIG 0.01  A 
ATOM     32  CE1 TYR P   8      80.859  -3.484  64.000  1.00 71.89 LIG 0.04  A 
ATOM     33  CZ  TYR P   8      79.480  -3.477  63.975  1.00 71.50 LIG 0.07  A 
ATOM     34  CE2 TYR P   8      78.804  -3.285  62.789  1.00 69.11 LIG 0.04  A 
ATOM     35  CD2 TYR P   8      79.516  -3.101  61.622  1.00 65.21 LIG 0.01  A 
BRANCH 33 36
ATOM     36 OH   TYR P   8      78.776  -3.662  65.141  1.00 83.55 LIG-0.36  OA
ATOM     37 HH   TYR P   8      78.307  -4.356  65.078  1.00 83.55 LIG 0.22  HD
ENDBRANCH 33 36
ENDBRANCH 29 30
ENDBRANCH 1 29
BRANCH 1 38
ATOM     38  N   TYR P   8      81.586  -2.435  57.925  1.00 59.31 LIG-0.35  N 
ATOM     39  C   VAL P   7      81.017  -2.858  56.799  1.00 65.10 LIG 0.24  C 
ATOM     40 O    VAL P   7      79.848  -3.261  56.745  1.00 66.40 LIG-0.27  OA
ATOM     41 H    TYR P   8      82.412  -2.200  57.977  1.00 59.31 LIG 0.16  HD
BRANCH 39 42
ATOM     42  CA  VAL P   7      81.888  -2.828  55.551  1.00 68.90 LIG 0.18  C 
BRANCH 42 43
ATOM     43  N   VAL P   7      82.985  -1.893  55.763  1.00 69.26 LIG-0.34  N 
ATOM     44  C   LEU P   6      82.813  -0.575  55.801  1.00 74.59 LIG 0.26  C 
ATOM     45 O    LEU P   6      81.704  -0.045  55.698  1.00 73.78 LIG-0.27  OA
ATOM     46 H    VAL P   7      83.750  -2.272  55.862  1.00 69.26 LIG 0.16  HD
BRANCH 44 47
ATOM     47  CA  LEU P   6      84.085   0.253  56.004  1.00 78.06 LIG 0.40  C 
ATOM     48  N   LEU P   6      83.768   1.537  56.617  1.00 74.40 LIG 0.61  N 
BRANCH 47 49
ATOM     49  CB  LEU P   6      85.114  -0.505  56.853  1.00 78.52 LIG 0.06  C 
BRANCH 49 50
ATOM     50  CG  LEU P   6      84.896  -0.718  58.354  1.00 77.43 LIG-0.02  C 
ATOM     51  CD2 LEU P   6      86.037  -0.150  59.189  1.00 73.93 LIG 0.01  C 
ATOM     52  CD1 LEU P   6      84.715  -2.201  58.601  1.00 75.78 LIG 0.01  C 
ENDBRANCH 49 50
ENDBRANCH 47 49
ENDBRANCH 44 47
ENDBRANCH 42 43
BRANCH 42 53
ATOM     53  CB  VAL P   7      82.416  -4.232  55.210  1.00 67.45 LIG 0.01  C 
ATOM     54  CG2 VAL P   7      83.453  -4.150  54.104  1.00 67.18 LIG 0.01  C 
ATOM     55  CG1 VAL P   7      81.276  -5.142  54.798  1.00 63.58 LIG 0.01  C 
ENDBRANCH 42 53
ENDBRANCH 39 42
ENDBRANCH 1 38
TORSDOF 20
ENDMDL
MODEL 33
USER: ADFR SOLUTION from run 125
USER: SCORE 18.840119 LL:  -4.944 LR: -14.910 RR:   0.000 FEB:  -8.944
USER: RMSD 3.744269
USER: SEED 124
USER: STATUS no improvement in best in 10 clusters for 5 generations
USER: GENES 22
USER: genes 0 Translation |==|  0.39967 0.51256 0.36016
USER: genes 1 Rotation |==|  0.64711 0.15383 0.43888 0.82372
USER: genes 2 Torsion [N]-CA--C-[N] |==|  0.52222
USER: genes 3 Torsion [C]-N--CA-[CB] |==|  0.55022
USER: genes 4 Torsion [N]-CA--CB-[CG] |==|  0.00263
USER: genes 5 Torsion [CA]-CB--CG-[CD] |==|  0.19438
USER: genes 6 Torsion [CB]-CG--CD-[OE1] |==|  0.02819
USER: genes 7 Torsion [N]-CA--C-[N] |==|  0.30577
USER: genes 8 Torsion [C]-N--CA-[C] |==|  0.52363
USER: genes 9 Torsion [N]-CA--C-[O] |==|  0.41896
USER: genes 10 Torsion [N]-CA--CB-[CG] |==|  0.27854
USER: genes 11 Torsion [CA]-CB--CG-[CD1] |==|  0.81243
USER: genes 12 Torsion [C]-CA--CB-[CG] |==|  0.51304
USER: genes 13 Torsion [CA]-CB--CG-[CD1] |==|  0.71472
USER: genes 14 Torsion [CE1]-CZ--OH-[HH] |==|  0.61591
USER: genes 15 Torsion [C]-CA--N-[C] |==|  0.64921
USER: genes 16 Torsion [N]-C--CA-[N] |==|  0.45054
USER: genes 17 Torsion [C]-CA--N-[C] |==|  0.74491
USER: genes 18 Torsion [N]-C--CA-[N] |==|  0.44585
USER: genes 19 Torsion [C]-CA--CB-[CG] |==|  0.98100
USER: genes 20 Torsion [CA]-CB--CG-[CD2] |==|  0.74035
USER: genes 21 Torsion [C]-CA--CB-[CG2] |==|  0.34700
ROOT
ATOM      1  CA  TYR P   8      80.292  -1.884  58.223  1.00 57.99 LIG 0.18  C 
ENDROOT
BRANCH 1 2
ATOM      2  C   TYR P   8      79.599  -0.589  58.621  1.00 56.68 LIG 0.24  C 
ATOM      3  N   GLN P   9      79.337   0.269  57.641  1.00 57.67 LIG-0.35  N 
ATOM      4 H    GLN P   9      79.587   0.155  56.826  1.00 57.67 LIG 0.16  HD
ATOM      5 O    TYR P   8      79.307  -0.377  59.803  1.00 54.26 LIG-0.27  OA
BRANCH 3 6
ATOM      6  CA  GLN P   9      78.590   1.498  57.871  1.00 54.86 LIG 0.18  C 
BRANCH 6 7
ATOM      7  CB  GLN P   9      78.050   2.066  56.561  1.00 52.41 LIG 0.04  C 
BRANCH 7 8
ATOM      8  CG  GLN P   9      78.387   1.225  55.342  1.00 53.63 LIG 0.10  C 
BRANCH 8 9
ATOM      9  CD  GLN P   9      77.636  -0.086  55.324  1.00 56.56 LIG 0.21  C 
ATOM     10 OE1  GLN P   9      76.722  -0.297  56.121  1.00 59.67 LIG-0.27  OA
ATOM     11  NE2 GLN P   9      78.015  -0.978  54.414  1.00 58.55 LIG-0.37  N 
ATOM     12 22HE GLN P   9      77.617  -1.739  54.366  1.00 58.55 LIG 0.16  HD
ATOM     13 21HE GLN P   9      78.658  -0.794  53.875  1.00 58.55 LIG 0.16  HD
ENDBRANCH 8 9
ENDBRANCH 7 8
ENDBRANCH 6 7
BRANCH 6 14
ATOM     14  C   GLN P   9      77.452   1.208  58.841  1.00 54.72 LIG 0.24  C 
ATOM     15 O    GLN P   9      76.495   0.509  58.490  1.00 59.60 LIG-0.27  OA
ATOM     16  N   PHE P  10      77.560   1.731  60.057  1.00 49.02 LIG-0.34  N 
ATOM     17 H    PHE P  10      78.241   2.178  60.334  1.00 49.02 LIG 0.16  HD
BRANCH 16 18
ATOM     18  CA  PHE P  10      76.494   1.577  61.037  1.00 50.33 LIG 0.19  C 
BRANCH 18 19
ATOM     19  C   PHE P  10      76.745   2.428  62.276  1.00 49.91 LIG 0.20  C 
ATOM     20 O    PHE P  10      75.799   2.859  62.938  1.00 45.93 LIG-0.65  OA
ATOM     21 OXT  PHE P  10      77.892   2.708  62.630  1.00 46.36 LIG-0.65  OA
ENDBRANCH 18 19
BRANCH 18 22
ATOM     22  CB  PHE P  10      76.321   0.106  61.425  1.00 51.88 LIG 0.07  C 
BRANCH 22 23
ATOM     23  CG  PHE P  10      76.965  -0.271  62.733  1.00 51.17 LIG-0.06  A 
ATOM     24  CD1 PHE P  10      78.343  -0.268  62.867  1.00 49.53 LIG 0.01  A 
ATOM     25  CE1 PHE P  10      78.937  -0.627  64.061  1.00 54.45 LIG 0.00  A 
ATOM     26  CZ  PHE P  10      78.154  -1.011  65.132  1.00 54.40 LIG 0.00  A 
ATOM     27  CE2 PHE P  10      76.782  -1.025  65.010  1.00 52.97 LIG 0.00  A 
ATOM     28  CD2 PHE P  10      76.192  -0.665  63.813  1.00 50.02 LIG 0.01  A 
ENDBRANCH 22 23
ENDBRANCH 18 22
ENDBRANCH 16 18
ENDBRANCH 6 14
ENDBRANCH 3 6
ENDBRANCH 1 2
BRANCH 1 29
ATOM     29  CB  TYR P   8      79.557  -2.531  57.050  1.00 54.61 LIG 0.07  C 
BRANCH 29 30
ATOM     30  CG  TYR P   8      80.092  -3.882  56.640  1.00 66.64 LIG-0.06  A 
ATOM     31  CD1 TYR P   8      80.895  -4.018  55.515  1.00 68.29 LIG 0.01  A 
ATOM     32  CE1 TYR P   8      81.382  -5.251  55.133  1.00 71.89 LIG 0.04  A 
ATOM     33  CZ  TYR P   8      81.063  -6.368  55.876  1.00 71.50 LIG 0.07  A 
ATOM     34  CE2 TYR P   8      80.264  -6.260  56.994  1.00 69.11 LIG 0.04  A 
ATOM     35  CD2 TYR P   8      79.781  -5.023  57.367  1.00 65.21 LIG 0.01  A 
BRANCH 33 36
ATOM     36 OH   TYR P   8      81.546  -7.599  55.498  1.00 83.55 LIG-0.36  OA
ATOM     37 HH   TYR P   8      80.941  -8.175  55.581  1.00 83.55 LIG 0.22  HD
ENDBRANCH 33 36
ENDBRANCH 29 30
ENDBRANCH 1 29
BRANCH 1 38
ATOM     38  N   TYR P   8      80.324  -2.771  59.377  1.00 59.31 LIG-0.35  N 
ATOM     39  C   VAL P   7      81.446  -3.320  59.835  1.00 65.10 LIG 0.24  C 
ATOM     40 O    VAL P   7      82.542  -3.179  59.276  1.00 66.40 LIG-0.27  OA
ATOM     41 H    TYR P   8      79.553  -2.906  59.734  1.00 59.31 LIG 0.16  HD
BRANCH 39 42
ATOM     42  CA  VAL P   7      81.321  -4.153  61.103  1.00 68.90 LIG 0.18  C 
BRANCH 42 43
ATOM     43  N   VAL P   7      82.498  -5.004  61.226  1.00 69.26 LIG-0.34  N 
ATOM     44  C   LEU P   6      82.548  -6.241  60.740  1.00 74.59 LIG 0.26  C 
ATOM     45 O    LEU P   6      81.616  -6.748  60.112  1.00 73.78 LIG-0.27  OA
ATOM     46 H    VAL P   7      83.153  -4.633  61.640  1.00 69.26 LIG 0.16  HD
BRANCH 44 47
ATOM     47  CA  LEU P   6      83.856  -6.997  60.989  1.00 78.06 LIG 0.40  C 
ATOM     48  N   LEU P   6      83.654  -8.433  60.842  1.00 74.40 LIG 0.61  N 
BRANCH 47 49
ATOM     49  CB  LEU P   6      84.967  -6.515  60.047  1.00 78.52 LIG 0.06  C 
BRANCH 49 50
ATOM     50  CG  LEU P   6      84.670  -5.524  58.918  1.00 77.43 LIG-0.02  C 
ATOM     51  CD2 LEU P   6      84.368  -6.225  57.599  1.00 73.93 LIG 0.01  C 
ATOM     52  CD1 LEU P   6      85.850  -4.585  58.787  1.00 75.78 LIG 0.01  C 
ENDBRANCH 49 50
ENDBRANCH 47 49
ENDBRANCH 44 47
ENDBRANCH 42 43
BRANCH 42 53
ATOM     53  CB  VAL P   7      81.156  -3.256  62.341  1.00 67.45 LIG 0.01  C 
ATOM     54  CG2 VAL P   7      79.902  -3.641  63.105  1.00 67.18 LIG 0.01  C 
ATOM     55  CG1 VAL P   7      81.100  -1.797  61.935  1.00 63.58 LIG 0.01  C 
ENDBRANCH 42 53
ENDBRANCH 39 42
ENDBRANCH 1 38
TORSDOF 20
ENDMDL
MODEL 34
USER: ADFR SOLUTION from run 34
USER: SCORE 17.646323 LL:  -4.739 LR: -14.822 RR:   0.000 FEB:  -8.856
USER: RMSD 3.663419
USER: SEED 33
USER: STATUS no improvement in best in 14 clusters for 5 generations
USER: GENES 22
USER: genes 0 Translation |==|  0.43459 0.45991 0.42889
USER: genes 1 Rotation |==|  0.49080 0.53857 0.49065 0.99834
USER: genes 2 Torsion [N]-CA--C-[N] |==|  0.36476
USER: genes 3 Torsion [C]-N--CA-[CB] |==|  0.39223
USER: genes 4 Torsion [N]-CA--CB-[CG] |==|  0.99247
USER: genes 5 Torsion [CA]-CB--CG-[CD] |==|  0.24236
USER: genes 6 Torsion [CB]-CG--CD-[OE1] |==|  0.06932
USER: genes 7 Torsion [N]-CA--C-[N] |==|  0.31547
USER: genes 8 Torsion [C]-N--CA-[C] |==|  0.70615
USER: genes 9 Torsion [N]-CA--C-[O] |==|  0.41511
USER: genes 10 Torsion [N]-CA--CB-[CG] |==|  0.91459
USER: genes 11 Torsion [CA]-CB--CG-[CD1] |==|  0.70719
USER: genes 12 Torsion [C]-CA--CB-[CG] |==|  0.56331
USER: genes 13 Torsion [CA]-CB--CG-[CD1] |==|  0.69734
USER: genes 14 Torsion [CE1]-CZ--OH-[HH] |==|  0.74953
USER: genes 15 Torsion [C]-CA--N-[C] |==|  0.63889
USER: genes 16 Torsion [N]-C--CA-[N] |==|  0.93874
USER: genes 17 Torsion [C]-CA--N-[C] |==|  0.78680
USER: genes 18 Torsion [N]-C--CA-[N] |==|  0.07282
USER: genes 19 Torsion [C]-CA--CB-[CG] |==|  0.87889
USER: genes 20 Torsion [CA]-CB--CG-[CD2] |==|  0.85888
USER: genes 21 Torsion [C]-CA--CB-[CG2] |==|  0.51501
ROOT
ATOM      1  CA  TYR P   8      81.077  -3.069  59.460  1.00 57.99 LIG 0.18  C 
ENDROOT
BRANCH 1 2
ATOM      2  C   TYR P   8      80.773  -1.619  59.806  1.00 56.68 LIG 0.24  C 
ATOM      3  N   GLN P   9      79.778  -1.046  59.136  1.00 57.67 LIG-0.35  N 
ATOM      4 H    GLN P   9      79.352  -1.427  58.494  1.00 57.67 LIG 0.16  HD
ATOM      5 O    TYR P   8      81.433  -1.034  60.671  1.00 54.26 LIG-0.27  OA
BRANCH 3 6
ATOM      6  CA  GLN P   9      79.320   0.303  59.441  1.00 54.86 LIG 0.18  C 
BRANCH 6 7
ATOM      7  CB  GLN P   9      78.972   1.066  58.165  1.00 52.41 LIG 0.04  C 
BRANCH 7 8
ATOM      8  CG  GLN P   9      79.240   0.285  56.891  1.00 53.63 LIG 0.10  C 
BRANCH 8 9
ATOM      9  CD  GLN P   9      78.066  -0.579  56.490  1.00 56.56 LIG 0.21  C 
ATOM     10 OE1  GLN P   9      76.924  -0.292  56.848  1.00 59.67 LIG-0.27  OA
ATOM     11  NE2 GLN P   9      78.338  -1.644  55.743  1.00 58.55 LIG-0.37  N 
ATOM     12 22HE GLN P   9      77.703  -2.166  55.491  1.00 58.55 LIG 0.16  HD
ATOM     13 21HE GLN P   9      79.149  -1.812  55.513  1.00 58.55 LIG 0.16  HD
ENDBRANCH 8 9
ENDBRANCH 7 8
ENDBRANCH 6 7
BRANCH 6 14
ATOM     14  C   GLN P   9      78.110   0.216  60.362  1.00 54.72 LIG 0.24  C 
ATOM     15 O    GLN P   9      77.052  -0.281  59.958  1.00 59.60 LIG-0.27  OA
ATOM     16  N   PHE P  10      78.267   0.684  61.595  1.00 49.02 LIG-0.34  N 
ATOM     17 H    PHE P  10      79.009   0.987  61.908  1.00 49.02 LIG 0.16  HD
BRANCH 16 18
ATOM     18  CA  PHE P  10      77.153   0.715  62.532  1.00 50.33 LIG 0.19  C 
BRANCH 18 19
ATOM     19  C   PHE P  10      76.626   2.132  62.728  1.00 49.91 LIG 0.20  C 
ATOM     20 O    PHE P  10      75.436   2.325  62.987  1.00 45.93 LIG-0.65  OA
ATOM     21 OXT  PHE P  10      77.374   3.106  62.623  1.00 46.36 LIG-0.65  OA
ENDBRANCH 18 19
BRANCH 18 22
ATOM     22  CB  PHE P  10      77.556   0.103  63.876  1.00 51.88 LIG 0.07  C 
BRANCH 22 23
ATOM     23  CG  PHE P  10      78.595  -0.982  63.778  1.00 51.17 LIG-0.06  A 
ATOM     24  CD1 PHE P  10      78.243  -2.312  63.938  1.00 49.53 LIG 0.01  A 
ATOM     25  CE1 PHE P  10      79.196  -3.308  63.862  1.00 54.45 LIG 0.00  A 
ATOM     26  CZ  PHE P  10      80.520  -2.982  63.641  1.00 54.40 LIG 0.00  A 
ATOM     27  CE2 PHE P  10      80.885  -1.662  63.487  1.00 52.97 LIG 0.00  A 
ATOM     28  CD2 PHE P  10      79.928  -0.668  63.563  1.00 50.02 LIG 0.01  A 
ENDBRANCH 22 23
ENDBRANCH 18 22
ENDBRANCH 16 18
ENDBRANCH 6 14
ENDBRANCH 3 6
ENDBRANCH 1 2
BRANCH 1 29
ATOM     29  CB  TYR P   8      80.596  -3.987  60.583  1.00 54.61 LIG 0.07  C 
BRANCH 29 30
ATOM     30  CG  TYR P   8      81.286  -5.329  60.637  1.00 66.64 LIG-0.06  A 
ATOM     31  CD1 TYR P   8      80.613  -6.491  60.282  1.00 68.29 LIG 0.01  A 
ATOM     32  CE1 TYR P   8      81.237  -7.720  60.335  1.00 71.89 LIG 0.04  A 
ATOM     33  CZ  TYR P   8      82.549  -7.799  60.752  1.00 71.50 LIG 0.07  A 
ATOM     34  CE2 TYR P   8      83.237  -6.661  61.115  1.00 69.11 LIG 0.04  A 
ATOM     35  CD2 TYR P   8      82.604  -5.437  61.059  1.00 65.21 LIG 0.01  A 
BRANCH 33 36
ATOM     36 OH   TYR P   8      83.174  -9.023  60.807  1.00 83.55 LIG-0.36  OA
ATOM     37 HH   TYR P   8      83.059  -9.362  61.567  1.00 83.55 LIG 0.22  HD
ENDBRANCH 33 36
ENDBRANCH 29 30
ENDBRANCH 1 29
BRANCH 1 38
ATOM     38  N   TYR P   8      82.511  -3.207  59.245  1.00 59.31 LIG-0.35  N 
ATOM     39  C   VAL P   7      83.026  -3.799  58.171  1.00 65.10 LIG 0.24  C 
ATOM     40 O    VAL P   7      82.331  -4.343  57.302  1.00 66.40 LIG-0.27  OA
ATOM     41 H    TYR P   8      82.991  -2.871  59.875  1.00 59.31 LIG 0.16  HD
BRANCH 39 42
ATOM     42  CA  VAL P   7      84.544  -3.783  58.054  1.00 68.90 LIG 0.18  C 
BRANCH 42 43
ATOM     43  N   VAL P   7      85.067  -2.690  58.862  1.00 69.26 LIG-0.34  N 
ATOM     44  C   LEU P   6      85.016  -1.418  58.476  1.00 74.59 LIG 0.26  C 
ATOM     45 O    LEU P   6      84.484  -1.063  57.421  1.00 73.78 LIG-0.27  OA
ATOM     46 H    VAL P   7      85.410  -2.943  59.609  1.00 69.26 LIG 0.16  HD
BRANCH 44 47
ATOM     47  CA  LEU P   6      85.642  -0.408  59.441  1.00 78.06 LIG 0.40  C 
ATOM     48  N   LEU P   6      86.675  -1.043  60.250  1.00 74.40 LIG 0.61  N 
BRANCH 47 49
ATOM     49  CB  LEU P   6      86.219   0.798  58.688  1.00 78.52 LIG 0.06  C 
BRANCH 49 50
ATOM     50  CG  LEU P   6      87.034   0.611  57.404  1.00 77.43 LIG-0.02  C 
ATOM     51  CD2 LEU P   6      88.152  -0.412  57.574  1.00 73.93 LIG 0.01  C 
ATOM     52  CD1 LEU P   6      87.579   1.960  56.987  1.00 75.78 LIG 0.01  C 
ENDBRANCH 49 50
ENDBRANCH 47 49
ENDBRANCH 44 47
ENDBRANCH 42 43
BRANCH 42 53
ATOM     53  CB  VAL P   7      85.147  -5.130  58.489  1.00 67.45 LIG 0.01  C 
ATOM     54  CG2 VAL P   7      86.663  -5.050  58.493  1.00 67.18 LIG 0.01  C 
ATOM     55  CG1 VAL P   7      84.679  -6.242  57.571  1.00 63.58 LIG 0.01  C 
ENDBRANCH 42 53
ENDBRANCH 39 42
ENDBRANCH 1 38
TORSDOF 20
ENDMDL
MODEL 35
USER: ADFR SOLUTION from run 125
USER: SCORE 18.005207 LL:  -4.639 LR: -14.775 RR:   0.000 FEB:  -8.809
USER: RMSD 4.593878
USER: SEED 124
USER: STATUS no improvement in best in 10 clusters for 5 generations
USER: GENES 22
USER: genes 0 Translation |==|  0.42847 0.59131 0.34749
USER: genes 1 Rotation |==|  0.73903 0.12861 0.41366 0.71790
USER: genes 2 Torsion [N]-CA--C-[N] |==|  0.60459
USER: genes 3 Torsion [C]-N--CA-[CB] |==|  0.54444
USER: genes 4 Torsion [N]-CA--CB-[CG] |==|  0.50096
USER: genes 5 Torsion [CA]-CB--CG-[CD] |==|  0.34358
USER: genes 6 Torsion [CB]-CG--CD-[OE1] |==|  0.85102
USER: genes 7 Torsion [N]-CA--C-[N] |==|  0.31063
USER: genes 8 Torsion [C]-N--CA-[C] |==|  0.52147
USER: genes 9 Torsion [N]-CA--C-[O] |==|  0.44256
USER: genes 10 Torsion [N]-CA--CB-[CG] |==|  0.31300
USER: genes 11 Torsion [CA]-CB--CG-[CD1] |==|  0.28539
USER: genes 12 Torsion [C]-CA--CB-[CG] |==|  0.83998
USER: genes 13 Torsion [CA]-CB--CG-[CD1] |==|  0.86724
USER: genes 14 Torsion [CE1]-CZ--OH-[HH] |==|  0.80800
USER: genes 15 Torsion [C]-CA--N-[C] |==|  0.71569
USER: genes 16 Torsion [N]-C--CA-[N] |==|  0.32971
USER: genes 17 Torsion [C]-CA--N-[C] |==|  0.73338
USER: genes 18 Torsion [N]-C--CA-[N] |==|  0.47739
USER: genes 19 Torsion [C]-CA--CB-[CG] |==|  0.98185
USER: genes 20 Torsion [CA]-CB--CG-[CD2] |==|  0.76536
USER: genes 21 Torsion [C]-CA--CB-[CG2] |==|  0.36555
ROOT
ATOM      1  CA  TYR P   8      80.940  -0.112  57.995  1.00 57.99 LIG 0.18  C 
ENDROOT
BRANCH 1 2
ATOM      2  C   TYR P   8      79.930   0.875  58.562  1.00 56.68 LIG 0.24  C 
ATOM      3  N   GLN P   9      79.408   1.747  57.705  1.00 57.67 LIG-0.35  N 
ATOM      4 H    GLN P   9      79.652   1.815  56.883  1.00 57.67 LIG 0.16  HD
ATOM      5 O    TYR P   8      79.632   0.841  59.760  1.00 54.26 LIG-0.27  OA
BRANCH 3 6
ATOM      6  CA  GLN P   9      78.359   2.679  58.096  1.00 54.86 LIG 0.18  C 
BRANCH 6 7
ATOM      7  CB  GLN P   9      77.673   3.279  56.872  1.00 52.41 LIG 0.04  C 
BRANCH 7 8
ATOM      8  CG  GLN P   9      76.571   4.268  57.209  1.00 53.63 LIG 0.10  C 
BRANCH 8 9
ATOM      9  CD  GLN P   9      76.798   5.619  56.569  1.00 56.56 LIG 0.21  C 
ATOM     10 OE1  GLN P   9      77.860   6.220  56.732  1.00 59.67 LIG-0.27  OA
ATOM     11  NE2 GLN P   9      75.802   6.106  55.837  1.00 58.55 LIG-0.37  N 
ATOM     12 22HE GLN P   9      75.885   6.872  55.454  1.00 58.55 LIG 0.16  HD
ATOM     13 21HE GLN P   9      75.075   5.657  55.747  1.00 58.55 LIG 0.16  HD
ENDBRANCH 8 9
ENDBRANCH 7 8
ENDBRANCH 6 7
BRANCH 6 14
ATOM     14  C   GLN P   9      77.351   1.946  58.972  1.00 54.72 LIG 0.24  C 
ATOM     15 O    GLN P   9      76.638   1.057  58.494  1.00 59.60 LIG-0.27  OA
ATOM     16  N   PHE P  10      77.301   2.307  60.249  1.00 49.02 LIG-0.34  N 
ATOM     17 H    PHE P  10      77.823   2.888  60.610  1.00 49.02 LIG 0.16  HD
BRANCH 16 18
ATOM     18  CA  PHE P  10      76.323   1.722  61.156  1.00 50.33 LIG 0.19  C 
BRANCH 18 19
ATOM     19  C   PHE P  10      76.328   2.419  62.511  1.00 49.91 LIG 0.20  C 
ATOM     20 O    PHE P  10      75.351   2.336  63.258  1.00 45.93 LIG-0.65  OA
ATOM     21 OXT  PHE P  10      77.299   3.083  62.878  1.00 46.36 LIG-0.65  OA
ENDBRANCH 18 19
BRANCH 18 22
ATOM     22  CB  PHE P  10      76.570   0.220  61.326  1.00 51.88 LIG 0.07  C 
BRANCH 22 23
ATOM     23  CG  PHE P  10      77.023  -0.182  62.704  1.00 51.17 LIG-0.06  A 
ATOM     24  CD1 PHE P  10      76.139  -0.767  63.595  1.00 49.53 LIG 0.01  A 
ATOM     25  CE1 PHE P  10      76.549  -1.123  64.865  1.00 54.45 LIG 0.00  A 
ATOM     26  CZ  PHE P  10      77.849  -0.881  65.264  1.00 54.40 LIG 0.00  A 
ATOM     27  CE2 PHE P  10      78.737  -0.293  64.390  1.00 52.97 LIG 0.00  A 
ATOM     28  CD2 PHE P  10      78.323   0.061  63.120  1.00 50.02 LIG 0.01  A 
ENDBRANCH 22 23
ENDBRANCH 18 22
ENDBRANCH 16 18
ENDBRANCH 6 14
ENDBRANCH 3 6
ENDBRANCH 1 2
BRANCH 1 29
ATOM     29  CB  TYR P   8      80.771  -0.221  56.480  1.00 54.61 LIG 0.07  C 
BRANCH 29 30
ATOM     30  CG  TYR P   8      79.393  -0.638  56.028  1.00 66.64 LIG-0.06  A 
ATOM     31  CD1 TYR P   8      78.750  -1.722  56.613  1.00 68.29 LIG 0.01  A 
ATOM     32  CE1 TYR P   8      77.493  -2.111  56.201  1.00 71.89 LIG 0.04  A 
ATOM     33  CZ  TYR P   8      76.864  -1.417  55.188  1.00 71.50 LIG 0.07  A 
ATOM     34  CE2 TYR P   8      77.483  -0.341  54.589  1.00 69.11 LIG 0.04  A 
ATOM     35  CD2 TYR P   8      78.741   0.040  55.008  1.00 65.21 LIG 0.01  A 
BRANCH 33 36
ATOM     36 OH   TYR P   8      75.611  -1.802  54.774  1.00 83.55 LIG-0.36  OA
ATOM     37 HH   TYR P   8      75.661  -2.543  54.380  1.00 83.55 LIG 0.22  HD
ENDBRANCH 33 36
ENDBRANCH 29 30
ENDBRANCH 1 29
BRANCH 1 38
ATOM     38  N   TYR P   8      80.744  -1.403  58.640  1.00 59.31 LIG-0.35  N 
ATOM     39  C   VAL P   7      81.537  -1.854  59.608  1.00 65.10 LIG 0.24  C 
ATOM     40 O    VAL P   7      82.546  -1.247  59.991  1.00 66.40 LIG-0.27  OA
ATOM     41 H    TYR P   8      80.070  -1.844  58.337  1.00 59.31 LIG 0.16  HD
BRANCH 39 42
ATOM     42  CA  VAL P   7      81.144  -3.184  60.237  1.00 68.90 LIG 0.18  C 
BRANCH 42 43
ATOM     43  N   VAL P   7      82.215  -4.146  60.014  1.00 69.26 LIG-0.34  N 
ATOM     44  C   LEU P   6      82.207  -5.014  59.007  1.00 74.59 LIG 0.26  C 
ATOM     45 O    LEU P   6      81.310  -5.045  58.160  1.00 73.78 LIG-0.27  OA
ATOM     46 H    VAL P   7      82.850  -4.099  60.592  1.00 69.26 LIG 0.16  HD
BRANCH 44 47
ATOM     47  CA  LEU P   6      83.402  -5.970  58.947  1.00 78.06 LIG 0.40  C 
ATOM     48  N   LEU P   6      83.191  -6.990  57.927  1.00 74.40 LIG 0.61  N 
BRANCH 47 49
ATOM     49  CB  LEU P   6      84.709  -5.211  58.682  1.00 78.52 LIG 0.06  C 
BRANCH 49 50
ATOM     50  CG  LEU P   6      84.702  -3.712  58.366  1.00 77.43 LIG-0.02  C 
ATOM     51  CD2 LEU P   6      84.454  -3.436  56.887  1.00 73.93 LIG 0.01  C 
ATOM     52  CD1 LEU P   6      86.019  -3.124  58.824  1.00 75.78 LIG 0.01  C 
ENDBRANCH 49 50
ENDBRANCH 47 49
ENDBRANCH 44 47
ENDBRANCH 42 43
BRANCH 42 53
ATOM     53  CB  VAL P   7      80.851  -3.021  61.739  1.00 67.45 LIG 0.01  C 
ATOM     54  CG2 VAL P   7      79.536  -3.691  62.093  1.00 67.18 LIG 0.01  C 
ATOM     55  CG1 VAL P   7      80.814  -1.553  62.115  1.00 63.58 LIG 0.01  C 
ENDBRANCH 42 53
ENDBRANCH 39 42
ENDBRANCH 1 38
TORSDOF 20
ENDMDL
MODEL 36
USER: ADFR SOLUTION from run 25
USER: SCORE 17.808241 LL:  -5.260 LR: -14.758 RR:   0.000 FEB:  -8.792
USER: RMSD 4.155566
USER: SEED 24
USER: STATUS no improvement in best in 11 clusters for 5 generations
USER: GENES 22
USER: genes 0 Translation |==|  0.39927 0.50215 0.35279
USER: genes 1 Rotation |==|  0.50064 0.74847 0.55717 0.93011
USER: genes 2 Torsion [N]-CA--C-[N] |==|  0.23086
USER: genes 3 Torsion [C]-N--CA-[CB] |==|  0.39760
USER: genes 4 Torsion [N]-CA--CB-[CG] |==|  0.51800
USER: genes 5 Torsion [CA]-CB--CG-[CD] |==|  0.15948
USER: genes 6 Torsion [CB]-CG--CD-[OE1] |==|  0.01745
USER: genes 7 Torsion [N]-CA--C-[N] |==|  0.32819
USER: genes 8 Torsion [C]-N--CA-[C] |==|  0.75332
USER: genes 9 Torsion [N]-CA--C-[O] |==|  0.43629
USER: genes 10 Torsion [N]-CA--CB-[CG] |==|  0.83917
USER: genes 11 Torsion [CA]-CB--CG-[CD1] |==|  0.68669
USER: genes 12 Torsion [C]-CA--CB-[CG] |==|  0.75129
USER: genes 13 Torsion [CA]-CB--CG-[CD1] |==|  0.63056
USER: genes 14 Torsion [CE1]-CZ--OH-[HH] |==|  0.33885
USER: genes 15 Torsion [C]-CA--N-[C] |==|  0.75000
USER: genes 16 Torsion [N]-C--CA-[N] |==|  0.17505
USER: genes 17 Torsion [C]-CA--N-[C] |==|  0.75845
USER: genes 18 Torsion [N]-C--CA-[N] |==|  0.45960
USER: genes 19 Torsion [C]-CA--CB-[CG] |==|  0.12682
USER: genes 20 Torsion [CA]-CB--CG-[CD2] |==|  0.69558
USER: genes 21 Torsion [C]-CA--CB-[CG2] |==|  0.53762
ROOT
ATOM      1  CA  TYR P   8      80.283  -2.119  58.090  1.00 57.99 LIG 0.18  C 
ENDROOT
BRANCH 1 2
ATOM      2  C   TYR P   8      80.101  -0.775  58.781  1.00 56.68 LIG 0.24  C 
ATOM      3  N   GLN P   9      79.071  -0.036  58.380  1.00 57.67 LIG-0.35  N 
ATOM      4 H    GLN P   9      78.555  -0.251  57.726  1.00 57.67 LIG 0.16  HD
ATOM      5 O    TYR P   8      80.885  -0.419  59.667  1.00 54.26 LIG-0.27  OA
BRANCH 3 6
ATOM      6  CA  GLN P   9      78.727   1.222  59.027  1.00 54.86 LIG 0.18  C 
BRANCH 6 7
ATOM      7  CB  GLN P   9      78.237   2.248  58.007  1.00 52.41 LIG 0.04  C 
BRANCH 7 8
ATOM      8  CG  GLN P   9      78.007   3.631  58.590  1.00 53.63 LIG 0.10  C 
BRANCH 8 9
ATOM      9  CD  GLN P   9      79.251   4.192  59.241  1.00 56.56 LIG 0.21  C 
ATOM     10 OE1  GLN P   9      80.325   3.597  59.161  1.00 59.67 LIG-0.27  OA
ATOM     11  NE2 GLN P   9      79.115   5.343  59.892  1.00 58.55 LIG-0.37  N 
ATOM     12 22HE GLN P   9      79.794   5.701  60.280  1.00 58.55 LIG 0.16  HD
ATOM     13 21HE GLN P   9      78.348   5.729  59.927  1.00 58.55 LIG 0.16  HD
ENDBRANCH 8 9
ENDBRANCH 7 8
ENDBRANCH 6 7
BRANCH 6 14
ATOM     14  C   GLN P   9      77.658   0.958  60.080  1.00 54.72 LIG 0.24  C 
ATOM     15 O    GLN P   9      76.559   0.497  59.752  1.00 59.60 LIG-0.27  OA
ATOM     16  N   PHE P  10      77.982   1.237  61.337  1.00 49.02 LIG-0.34  N 
ATOM     17 H    PHE P  10      78.758   1.511  61.589  1.00 49.02 LIG 0.16  HD
BRANCH 16 18
ATOM     18  CA  PHE P  10      77.010   1.091  62.412  1.00 50.33 LIG 0.19  C 
BRANCH 18 19
ATOM     19  C   PHE P  10      76.204   2.368  62.615  1.00 49.91 LIG 0.20  C 
ATOM     20 O    PHE P  10      75.094   2.326  63.151  1.00 45.93 LIG-0.65  OA
ATOM     21 OXT  PHE P  10      76.639   3.458  62.240  1.00 46.36 LIG-0.65  OA
ENDBRANCH 18 19
BRANCH 18 22
ATOM     22  CB  PHE P  10      77.700   0.680  63.716  1.00 51.88 LIG 0.07  C 
BRANCH 22 23
ATOM     23  CG  PHE P  10      78.484  -0.602  63.627  1.00 51.17 LIG-0.06  A 
ATOM     24  CD1 PHE P  10      78.077  -1.728  64.322  1.00 49.53 LIG 0.01  A 
ATOM     25  CE1 PHE P  10      78.803  -2.901  64.253  1.00 54.45 LIG 0.00  A 
ATOM     26  CZ  PHE P  10      79.958  -2.954  63.498  1.00 54.40 LIG 0.00  A 
ATOM     27  CE2 PHE P  10      80.378  -1.839  62.806  1.00 52.97 LIG 0.00  A 
ATOM     28  CD2 PHE P  10      79.648  -0.667  62.878  1.00 50.02 LIG 0.01  A 
ENDBRANCH 22 23
ENDBRANCH 18 22
ENDBRANCH 16 18
ENDBRANCH 6 14
ENDBRANCH 3 6
ENDBRANCH 1 2
BRANCH 1 29
ATOM     29  CB  TYR P   8      81.039  -3.080  59.006  1.00 54.61 LIG 0.07  C 
BRANCH 29 30
ATOM     30  CG  TYR P   8      82.541  -3.035  58.862  1.00 66.64 LIG-0.06  A 
ATOM     31  CD1 TYR P   8      83.281  -4.206  58.752  1.00 68.29 LIG 0.01  A 
ATOM     32  CE1 TYR P   8      84.654  -4.171  58.626  1.00 71.89 LIG 0.04  A 
ATOM     33  CZ  TYR P   8      85.305  -2.955  58.615  1.00 71.50 LIG 0.07  A 
ATOM     34  CE2 TYR P   8      84.594  -1.780  58.728  1.00 69.11 LIG 0.04  A 
ATOM     35  CD2 TYR P   8      83.221  -1.825  58.854  1.00 65.21 LIG 0.01  A 
BRANCH 33 36
ATOM     36 OH   TYR P   8      86.674  -2.917  58.490  1.00 83.55 LIG-0.36  OA
ATOM     37 HH   TYR P   8      86.881  -2.463  57.814  1.00 83.55 LIG 0.22  HD
ENDBRANCH 33 36
ENDBRANCH 29 30
ENDBRANCH 1 29
BRANCH 1 38
ATOM     38  N   TYR P   8      80.999  -1.908  56.840  1.00 59.31 LIG-0.35  N 
ATOM     39  C   VAL P   7      80.384  -1.661  55.687  1.00 65.10 LIG 0.24  C 
ATOM     40 O    VAL P   7      79.151  -1.660  55.568  1.00 66.40 LIG-0.27  OA
ATOM     41 H    TYR P   8      81.855  -1.959  56.918  1.00 59.31 LIG 0.16  HD
BRANCH 39 42
ATOM     42  CA  VAL P   7      81.281  -1.378  54.491  1.00 68.90 LIG 0.18  C 
BRANCH 42 43
ATOM     43  N   VAL P   7      82.085  -2.561  54.214  1.00 69.26 LIG-0.34  N 
ATOM     44  C   LEU P   6      83.252  -2.796  54.807  1.00 74.59 LIG 0.26  C 
ATOM     45 O    LEU P   6      83.724  -2.049  55.668  1.00 73.78 LIG-0.27  OA
ATOM     46 H    VAL P   7      81.735  -3.090  53.634  1.00 69.26 LIG 0.16  HD
BRANCH 44 47
ATOM     47  CA  LEU P   6      83.971  -4.075  54.369  1.00 78.06 LIG 0.40  C 
ATOM     48  N   LEU P   6      85.360  -4.058  54.810  1.00 74.40 LIG 0.61  N 
BRANCH 47 49
ATOM     49  CB  LEU P   6      83.257  -5.325  54.900  1.00 78.52 LIG 0.06  C 
BRANCH 49 50
ATOM     50  CG  LEU P   6      81.735  -5.467  54.800  1.00 77.43 LIG-0.02  C 
ATOM     51  CD2 LEU P   6      81.055  -5.364  56.161  1.00 73.93 LIG 0.01  C 
ATOM     52  CD1 LEU P   6      81.424  -6.786  54.126  1.00 75.78 LIG 0.01  C 
ENDBRANCH 49 50
ENDBRANCH 47 49
ENDBRANCH 44 47
ENDBRANCH 42 43
BRANCH 42 53
ATOM     53  CB  VAL P   7      80.452  -0.972  53.260  1.00 67.45 LIG 0.01  C 
ATOM     54  CG2 VAL P   7      81.311  -1.018  52.009  1.00 67.18 LIG 0.01  C 
ATOM     55  CG1 VAL P   7      79.868   0.414  53.449  1.00 63.58 LIG 0.01  C 
ENDBRANCH 42 53
ENDBRANCH 39 42
ENDBRANCH 1 38
TORSDOF 20
ENDMDL
MODEL 37
USER: ADFR SOLUTION from run 141
USER: SCORE 18.967625 LL:  -5.317 LR: -14.704 RR:   0.000 FEB:  -8.738
USER: RMSD 4.720729
USER: SEED 140
USER: STATUS no improvement in best in 13 clusters for 5 generations
USER: GENES 22
USER: genes 0 Translation |==|  0.41934 0.52648 0.40721
USER: genes 1 Rotation |==|  0.36025 0.73593 0.58855 0.90862
USER: genes 2 Torsion [N]-CA--C-[N] |==|  0.07778
USER: genes 3 Torsion [C]-N--CA-[CB] |==|  0.52344
USER: genes 4 Torsion [N]-CA--CB-[CG] |==|  0.01116
USER: genes 5 Torsion [CA]-CB--CG-[CD] |==|  0.24105
USER: genes 6 Torsion [CB]-CG--CD-[OE1] |==|  0.99710
USER: genes 7 Torsion [N]-CA--C-[N] |==|  0.27960
USER: genes 8 Torsion [C]-N--CA-[C] |==|  0.52459
USER: genes 9 Torsion [N]-CA--C-[O] |==|  0.50644
USER: genes 10 Torsion [N]-CA--CB-[CG] |==|  0.26451
USER: genes 11 Torsion [CA]-CB--CG-[CD1] |==|  0.34922
USER: genes 12 Torsion [C]-CA--CB-[CG] |==|  0.22932
USER: genes 13 Torsion [CA]-CB--CG-[CD1] |==|  0.58125
USER: genes 14 Torsion [CE1]-CZ--OH-[HH] |==|  0.48435
USER: genes 15 Torsion [C]-CA--N-[C] |==|  0.71883
USER: genes 16 Torsion [N]-C--CA-[N] |==|  0.97783
USER: genes 17 Torsion [C]-CA--N-[C] |==|  0.72976
USER: genes 18 Torsion [N]-C--CA-[N] |==|  0.45460
USER: genes 19 Torsion [C]-CA--CB-[CG] |==|  0.29028
USER: genes 20 Torsion [CA]-CB--CG-[CD2] |==|  0.74610
USER: genes 21 Torsion [C]-CA--CB-[CG2] |==|  0.51535
ROOT
ATOM      1  CA  TYR P   8      80.734  -1.571  59.070  1.00 57.99 LIG 0.18  C 
ENDROOT
BRANCH 1 2
ATOM      2  C   TYR P   8      79.975  -0.255  59.153  1.00 56.68 LIG 0.24  C 
ATOM      3  N   GLN P   9      79.648   0.315  57.997  1.00 57.67 LIG-0.35  N 
ATOM      4 H    GLN P   9      79.891   0.013  57.229  1.00 57.67 LIG 0.16  HD
ATOM      5 O    TYR P   8      79.691   0.231  60.253  1.00 54.26 LIG-0.27  OA
BRANCH 3 6
ATOM      6  CA  GLN P   9      78.835   1.522  57.936  1.00 54.86 LIG 0.18  C 
BRANCH 6 7
ATOM      7  CB  GLN P   9      78.438   1.844  56.497  1.00 52.41 LIG 0.04  C 
BRANCH 7 8
ATOM      8  CG  GLN P   9      78.887   0.801  55.489  1.00 53.63 LIG 0.10  C 
BRANCH 8 9
ATOM      9  CD  GLN P   9      77.887  -0.324  55.344  1.00 56.56 LIG 0.21  C 
ATOM     10 OE1  GLN P   9      76.856  -0.339  56.016  1.00 59.67 LIG-0.27  OA
ATOM     11  NE2 GLN P   9      78.185  -1.276  54.465  1.00 58.55 LIG-0.37  N 
ATOM     12 22HE GLN P   9      77.648  -1.937  54.348  1.00 58.55 LIG 0.16  HD
ATOM     13 21HE GLN P   9      78.916  -1.231  54.014  1.00 58.55 LIG 0.16  HD
ENDBRANCH 8 9
ENDBRANCH 7 8
ENDBRANCH 6 7
BRANCH 6 14
ATOM     14  C   GLN P   9      77.599   1.328  58.804  1.00 54.72 LIG 0.24  C 
ATOM     15 O    GLN P   9      76.640   0.667  58.388  1.00 59.60 LIG-0.27  OA
ATOM     16  N   PHE P  10      77.625   1.890  60.008  1.00 49.02 LIG-0.34  N 
ATOM     17 H    PHE P  10      78.302   2.310  60.332  1.00 49.02 LIG 0.16  HD
BRANCH 16 18
ATOM     18  CA  PHE P  10      76.467   1.828  60.889  1.00 50.33 LIG 0.19  C 
BRANCH 18 19
ATOM     19  C   PHE P  10      76.648   2.716  62.114  1.00 49.91 LIG 0.20  C 
ATOM     20 O    PHE P  10      75.781   2.754  62.990  1.00 45.93 LIG-0.65  OA
ATOM     21 OXT  PHE P  10      77.652   3.418  62.245  1.00 46.36 LIG-0.65  OA
ENDBRANCH 18 19
BRANCH 18 22
ATOM     22  CB  PHE P  10      76.183   0.384  61.313  1.00 51.88 LIG 0.07  C 
BRANCH 22 23
ATOM     23  CG  PHE P  10      76.787  -0.004  62.636  1.00 51.17 LIG-0.06  A 
ATOM     24  CD1 PHE P  10      75.998  -0.534  63.643  1.00 49.53 LIG 0.01  A 
ATOM     25  CE1 PHE P  10      76.547  -0.878  64.863  1.00 54.45 LIG 0.00  A 
ATOM     26  CZ  PHE P  10      77.893  -0.678  65.095  1.00 54.40 LIG 0.00  A 
ATOM     27  CE2 PHE P  10      78.689  -0.146  64.104  1.00 52.97 LIG 0.00  A 
ATOM     28  CD2 PHE P  10      78.136   0.197  62.884  1.00 50.02 LIG 0.01  A 
ENDBRANCH 22 23
ENDBRANCH 18 22
ENDBRANCH 16 18
ENDBRANCH 6 14
ENDBRANCH 3 6
ENDBRANCH 1 2
BRANCH 1 29
ATOM     29  CB  TYR P   8      81.649  -1.725  60.284  1.00 54.61 LIG 0.07  C 
BRANCH 29 30
ATOM     30  CG  TYR P   8      80.967  -2.252  61.523  1.00 66.64 LIG-0.06  A 
ATOM     31  CD1 TYR P   8      81.422  -1.904  62.788  1.00 68.29 LIG 0.01  A 
ATOM     32  CE1 TYR P   8      80.807  -2.387  63.924  1.00 71.89 LIG 0.04  A 
ATOM     33  CZ  TYR P   8      79.725  -3.234  63.803  1.00 71.50 LIG 0.07  A 
ATOM     34  CE2 TYR P   8      79.258  -3.598  62.559  1.00 69.11 LIG 0.04  A 
ATOM     35  CD2 TYR P   8      79.880  -3.110  61.429  1.00 65.21 LIG 0.01  A 
BRANCH 33 36
ATOM     36 OH   TYR P   8      79.109  -3.719  64.933  1.00 83.55 LIG-0.36  OA
ATOM     37 HH   TYR P   8      78.425  -4.155  64.715  1.00 83.55 LIG 0.22  HD
ENDBRANCH 33 36
ENDBRANCH 29 30
ENDBRANCH 1 29
BRANCH 1 38
ATOM     38  N   TYR P   8      81.496  -1.594  57.829  1.00 59.31 LIG-0.35  N 
ATOM     39  C   VAL P   7      81.099  -2.261  56.749  1.00 65.10 LIG 0.24  C 
ATOM     40 O    VAL P   7      80.087  -2.974  56.732  1.00 66.40 LIG-0.27  OA
ATOM     41 H    TYR P   8      82.225  -1.137  57.860  1.00 59.31 LIG 0.16  HD
BRANCH 39 42
ATOM     42  CA  VAL P   7      81.965  -2.111  55.507  1.00 68.90 LIG 0.18  C 
BRANCH 42 43
ATOM     43  N   VAL P   7      82.969  -1.083  55.753  1.00 69.26 LIG-0.34  N 
ATOM     44  C   LEU P   6      82.824   0.177  55.354  1.00 74.59 LIG 0.26  C 
ATOM     45 O    LEU P   6      81.810   0.582  54.779  1.00 73.78 LIG-0.27  OA
ATOM     46 H    VAL P   7      83.659  -1.367  56.179  1.00 69.26 LIG 0.16  HD
BRANCH 44 47
ATOM     47  CA  LEU P   6      83.994   1.111  55.674  1.00 78.06 LIG 0.40  C 
ATOM     48  N   LEU P   6      83.910   2.329  54.877  1.00 74.40 LIG 0.61  N 
BRANCH 47 49
ATOM     49  CB  LEU P   6      84.042   1.452  57.169  1.00 78.52 LIG 0.06  C 
BRANCH 49 50
ATOM     50  CG  LEU P   6      85.079   0.808  58.093  1.00 77.43 LIG-0.02  C 
ATOM     51  CD2 LEU P   6      84.562  -0.473  58.738  1.00 73.93 LIG 0.01  C 
ATOM     52  CD1 LEU P   6      85.484   1.827  59.137  1.00 75.78 LIG 0.01  C 
ENDBRANCH 49 50
ENDBRANCH 47 49
ENDBRANCH 44 47
ENDBRANCH 42 43
BRANCH 42 53
ATOM     53  CB  VAL P   7      82.625  -3.448  55.126  1.00 67.45 LIG 0.01  C 
ATOM     54  CG2 VAL P   7      83.588  -3.248  53.970  1.00 67.18 LIG 0.01  C 
ATOM     55  CG1 VAL P   7      81.570  -4.474  54.764  1.00 63.58 LIG 0.01  C 
ENDBRANCH 42 53
ENDBRANCH 39 42
ENDBRANCH 1 38
TORSDOF 20
ENDMDL
MODEL 38
USER: ADFR SOLUTION from run 102
USER: SCORE 18.047111 LL:  -5.486 LR: -14.672 RR:   0.000 FEB:  -8.706
USER: RMSD 3.627719
USER: SEED 101
USER: STATUS no improvement in best in 13 clusters for 5 generations
USER: GENES 22
USER: genes 0 Translation |==|  0.40924 0.48731 0.39900
USER: genes 1 Rotation |==|  0.42061 0.72575 0.51186 0.93886
USER: genes 2 Torsion [N]-CA--C-[N] |==|  0.23329
USER: genes 3 Torsion [C]-N--CA-[CB] |==|  0.37448
USER: genes 4 Torsion [N]-CA--CB-[CG] |==|  0.99875
USER: genes 5 Torsion [CA]-CB--CG-[CD] |==|  0.20832
USER: genes 6 Torsion [CB]-CG--CD-[OE1] |==|  0.00466
USER: genes 7 Torsion [N]-CA--C-[N] |==|  0.27403
USER: genes 8 Torsion [C]-N--CA-[C] |==|  0.58260
USER: genes 9 Torsion [N]-CA--C-[O] |==|  0.43465
USER: genes 10 Torsion [N]-CA--CB-[CG] |==|  0.15874
USER: genes 11 Torsion [CA]-CB--CG-[CD1] |==|  0.78029
USER: genes 12 Torsion [C]-CA--CB-[CG] |==|  0.47422
USER: genes 13 Torsion [CA]-CB--CG-[CD1] |==|  0.80687
USER: genes 14 Torsion [CE1]-CZ--OH-[HH] |==|  0.67181
USER: genes 15 Torsion [C]-CA--N-[C] |==|  0.77076
USER: genes 16 Torsion [N]-C--CA-[N] |==|  0.30565
USER: genes 17 Torsion [C]-CA--N-[C] |==|  0.77548
USER: genes 18 Torsion [N]-C--CA-[N] |==|  0.37933
USER: genes 19 Torsion [C]-CA--CB-[CG] |==|  0.89961
USER: genes 20 Torsion [CA]-CB--CG-[CD2] |==|  0.57890
USER: genes 21 Torsion [C]-CA--CB-[CG2] |==|  0.51108
ROOT
ATOM      1  CA  TYR P   8      80.507  -2.453  58.922  1.00 57.99 LIG 0.18  C 
ENDROOT
BRANCH 1 2
ATOM      2  C   TYR P   8      80.270  -0.957  59.072  1.00 56.68 LIG 0.24  C 
ATOM      3  N   GLN P   9      79.307  -0.431  58.321  1.00 57.67 LIG-0.35  N 
ATOM      4 H    GLN P   9      78.867  -0.874  57.729  1.00 57.67 LIG 0.16  HD
ATOM      5 O    TYR P   8      80.953  -0.294  59.860  1.00 54.26 LIG-0.27  OA
BRANCH 3 6
ATOM      6  CA  GLN P   9      78.912   0.966  58.441  1.00 54.86 LIG 0.18  C 
BRANCH 6 7
ATOM      7  CB  GLN P   9      78.760   1.613  57.066  1.00 52.41 LIG 0.04  C 
BRANCH 7 8
ATOM      8  CG  GLN P   9      79.060   0.676  55.910  1.00 53.63 LIG 0.10  C 
BRANCH 8 9
ATOM      9  CD  GLN P   9      77.946  -0.319  55.675  1.00 56.56 LIG 0.21  C 
ATOM     10 OE1  GLN P   9      76.925  -0.293  56.361  1.00 59.67 LIG-0.27  OA
ATOM     11  NE2 GLN P   9      78.135  -1.205  54.702  1.00 58.55 LIG-0.37  N 
ATOM     12 22HE GLN P   9      77.530  -1.792  54.531  1.00 58.55 LIG 0.16  HD
ATOM     13 21HE GLN P   9      78.862  -1.192  54.244  1.00 58.55 LIG 0.16  HD
ENDBRANCH 8 9
ENDBRANCH 7 8
ENDBRANCH 6 7
BRANCH 6 14
ATOM     14  C   GLN P   9      77.605   1.043  59.218  1.00 54.72 LIG 0.24  C 
ATOM     15 O    GLN P   9      76.527   0.828  58.652  1.00 59.60 LIG-0.27  OA
ATOM     16  N   PHE P  10      77.699   1.335  60.511  1.00 49.02 LIG-0.34  N 
ATOM     17 H    PHE P  10      78.442   1.439  60.931  1.00 49.02 LIG 0.16  HD
BRANCH 16 18
ATOM     18  CA  PHE P  10      76.507   1.506  61.329  1.00 50.33 LIG 0.19  C 
BRANCH 18 19
ATOM     19  C   PHE P  10      76.747   2.486  62.471  1.00 49.91 LIG 0.20  C 
ATOM     20 O    PHE P  10      75.801   3.083  62.990  1.00 45.93 LIG-0.65  OA
ATOM     21 OXT  PHE P  10      77.886   2.708  62.887  1.00 46.36 LIG-0.65  OA
ENDBRANCH 18 19
BRANCH 18 22
ATOM     22  CB  PHE P  10      76.025   0.158  61.874  1.00 51.88 LIG 0.07  C 
BRANCH 22 23
ATOM     23  CG  PHE P  10      77.053  -0.589  62.682  1.00 51.17 LIG-0.06  A 
ATOM     24  CD1 PHE P  10      78.062  -1.300  62.054  1.00 49.53 LIG 0.01  A 
ATOM     25  CE1 PHE P  10      78.998  -1.998  62.791  1.00 54.45 LIG 0.00  A 
ATOM     26  CZ  PHE P  10      78.924  -2.005  64.170  1.00 54.40 LIG 0.00  A 
ATOM     27  CE2 PHE P  10      77.922  -1.307  64.808  1.00 52.97 LIG 0.00  A 
ATOM     28  CD2 PHE P  10      76.987  -0.609  64.066  1.00 50.02 LIG 0.01  A 
ENDBRANCH 22 23
ENDBRANCH 18 22
ENDBRANCH 16 18
ENDBRANCH 6 14
ENDBRANCH 3 6
ENDBRANCH 1 2
BRANCH 1 29
ATOM     29  CB  TYR P   8      81.115  -3.017  60.205  1.00 54.61 LIG 0.07  C 
BRANCH 29 30
ATOM     30  CG  TYR P   8      81.190  -4.524  60.256  1.00 66.64 LIG-0.06  A 
ATOM     31  CD1 TYR P   8      80.037  -5.291  60.366  1.00 68.29 LIG 0.01  A 
ATOM     32  CE1 TYR P   8      80.100  -6.668  60.418  1.00 71.89 LIG 0.04  A 
ATOM     33  CZ  TYR P   8      81.327  -7.295  60.365  1.00 71.50 LIG 0.07  A 
ATOM     34  CE2 TYR P   8      82.486  -6.556  60.260  1.00 69.11 LIG 0.04  A 
ATOM     35  CD2 TYR P   8      82.413  -5.179  60.210  1.00 65.21 LIG 0.01  A 
BRANCH 33 36
ATOM     36 OH   TYR P   8      81.394  -8.667  60.418  1.00 83.55 LIG-0.36  OA
ATOM     37 HH   TYR P   8      81.825  -8.901  61.100  1.00 83.55 LIG 0.22  HD
ENDBRANCH 33 36
ENDBRANCH 29 30
ENDBRANCH 1 29
BRANCH 1 38
ATOM     38  N   TYR P   8      81.384  -2.675  57.781  1.00 59.31 LIG-0.35  N 
ATOM     39  C   VAL P   7      80.943  -2.716  56.527  1.00 65.10 LIG 0.24  C 
ATOM     40 O    VAL P   7      79.743  -2.638  56.232  1.00 66.40 LIG-0.27  OA
ATOM     41 H    TYR P   8      82.212  -2.778  57.994  1.00 59.31 LIG 0.16  HD
BRANCH 39 42
ATOM     42  CA  VAL P   7      82.001  -2.870  55.444  1.00 68.90 LIG 0.18  C 
BRANCH 42 43
ATOM     43  N   VAL P   7      81.885  -4.198  54.857  1.00 69.26 LIG-0.34  N 
ATOM     44  C   LEU P   6      82.401  -5.285  55.423  1.00 74.59 LIG 0.26  C 
ATOM     45 O    LEU P   6      82.983  -5.257  56.511  1.00 73.78 LIG-0.27  OA
ATOM     46 H    VAL P   7      81.454  -4.213  54.114  1.00 69.26 LIG 0.16  HD
BRANCH 44 47
ATOM     47  CA  LEU P   6      82.207  -6.591  54.648  1.00 78.06 LIG 0.40  C 
ATOM     48  N   LEU P   6      83.437  -7.373  54.645  1.00 74.40 LIG 0.61  N 
BRANCH 47 49
ATOM     49  CB  LEU P   6      81.050  -7.416  55.226  1.00 78.52 LIG 0.06  C 
BRANCH 49 50
ATOM     50  CG  LEU P   6      80.781  -7.450  56.734  1.00 77.43 LIG-0.02  C 
ATOM     51  CD2 LEU P   6      80.128  -8.754  57.175  1.00 73.93 LIG 0.01  C 
ATOM     52  CD1 LEU P   6      79.924  -6.254  57.090  1.00 75.78 LIG 0.01  C 
ENDBRANCH 49 50
ENDBRANCH 47 49
ENDBRANCH 44 47
ENDBRANCH 42 43
BRANCH 42 53
ATOM     53  CB  VAL P   7      81.859  -1.776  54.371  1.00 67.45 LIG 0.01  C 
ATOM     54  CG2 VAL P   7      82.859  -2.005  53.252  1.00 67.18 LIG 0.01  C 
ATOM     55  CG1 VAL P   7      82.057  -0.404  54.984  1.00 63.58 LIG 0.01  C 
ENDBRANCH 42 53
ENDBRANCH 39 42
ENDBRANCH 1 38
TORSDOF 20
ENDMDL
