MODEL 1
USER: ADFR SOLUTION from run 77
USER: SCORE 19.379667 LL:  -4.243 LR: -18.488 RR:   0.000 FEB: -11.031
USER: RMSD 0.911628
USER: SEED 76
USER: STATUS searching
USER: GENES 27
USER: genes 0 Translation |==|  0.51088 0.52091 0.45772
USER: genes 1 Rotation |==|  0.47574 0.49622 0.50688 0.99935
USER: genes 2 Torsion [CB]-CA--N-[C] |==|  0.26667
USER: genes 3 Torsion [N]-C--CA-[N] |==|  0.46592
USER: genes 4 Torsion [C]-CA--N-[C] |==|  0.70346
USER: genes 5 Torsion [N]-C--CA-[N] |==|  0.33365
USER: genes 6 Torsion [C]-CA--CB-[CG] |==|  0.09752
USER: genes 7 Torsion [CA]-CB--CG-[OD2] |==|  0.64894
USER: genes 8 Torsion [C]-CA--N-[C] |==|  0.74579
USER: genes 9 Torsion [C]-CA--CB-[CG] |==|  0.33340
USER: genes 10 Torsion [CA]-CB--CG-[CD1] |==|  0.46465
USER: genes 11 Torsion [N]-CA--C-[N] |==|  0.41986
USER: genes 12 Torsion [C]-N--CA-[CB] |==|  0.20314
USER: genes 13 Torsion [N]-CA--CB-[CG2] |==|  0.47098
USER: genes 14 Torsion [CA]-CB--OG1-[HG1] |==|  0.22484
USER: genes 15 Torsion [N]-CA--C-[N] |==|  0.30907
USER: genes 16 Torsion [C]-N--CA-[CB] |==|  0.47434
USER: genes 17 Torsion [N]-CA--CB-[OG] |==|  0.53959
USER: genes 18 Torsion [CA]-CB--OG-[HG] |==|  0.00552
USER: genes 19 Torsion [N]-CA--C-[N] |==|  0.41294
USER: genes 20 Torsion [C]-N--CA-[CB] |==|  0.25634
USER: genes 21 Torsion [N]-CA--C-[OXT] |==|  0.93510
USER: genes 22 Torsion [N]-CA--CB-[CG2] |==|  0.64717
USER: genes 23 Torsion [CA]-CB--CG1-[CD1] |==|  0.61494
USER: genes 24 Torsion [N]-CA--CB-[CG] |==|  0.81583
USER: genes 25 Torsion [CA]-CB--CG-[CD] |==|  0.61489
USER: genes 26 Torsion [CB]-CG--CD-[OE1] |==|  0.16129
ROOT
ATOM      1  CA  GLN B 366      11.345  89.614  11.919  1.00 38.37 LIG 0.18  C 
ENDROOT
BRANCH 1 2
ATOM      2  N   GLN B 366      12.497  88.733  11.836  1.00 38.60 LIG-0.35  N 
ATOM      3 H    GLN B 366      12.300  87.898  11.775  1.00 38.60 LIG 0.16  HD
ATOM      4  C   LEU B 365      13.749  89.204  11.855  1.00 41.18 LIG 0.24  C 
ATOM      5 O    LEU B 365      14.033  90.417  11.923  1.00 36.84 LIG-0.27  OA
BRANCH 4 6
ATOM      6  CA  LEU B 365      14.836  88.138  11.857  1.00 40.54 LIG 0.18  C 
BRANCH 6 7
ATOM      7  N   LEU B 365      16.129  88.754  11.587  1.00 42.84 LIG-0.35  N 
ATOM      8  C   ASP B 364      16.713  88.582  10.407  1.00 57.74 LIG 0.24  C 
ATOM      9 O    ASP B 364      16.214  87.874   9.577  1.00 57.74 LIG-0.27  OA
ATOM     10 H    LEU B 365      16.456  89.215  12.234  1.00 42.84 LIG 0.16  HD
BRANCH 8 11
ATOM     11  CA  ASP B 364      18.053  89.250  10.115  1.00 64.41 LIG 0.19  C 
BRANCH 11 12
ATOM     12  CB  ASP B 364      17.974  90.169   8.915  1.00 67.32 LIG 0.15  C 
BRANCH 12 13
ATOM     13  CG  ASP B 364      16.665  90.854   8.815  1.00 64.46 LIG 0.17  C 
ATOM     14 OD2  ASP B 364      16.038  90.753   7.729  1.00 62.61 LIG-0.65  OA
ATOM     15 OD1  ASP B 364      16.293  91.501   9.838  1.00 62.85 LIG-0.65  OA
ENDBRANCH 12 13
ENDBRANCH 11 12
BRANCH 11 16
ATOM     16  N   ASP B 364      19.082  88.306   9.809  1.00 73.89 LIG-0.35  N 
ATOM     17  C   ACE B 363      19.890  87.779  10.688  1.00 53.98 LIG 0.21  C 
ATOM     18  CH3 ACE B 363      20.900  86.886  10.007  1.00 56.03 LIG 0.12  C 
ATOM     19 O    ACE B 363      19.808  87.969  11.928  1.00 54.37 LIG-0.27  OA
ATOM     20 H    ASP B 364      19.122  88.112   8.972  1.00 73.89 LIG 0.16  HD
ENDBRANCH 11 16
ENDBRANCH 8 11
ENDBRANCH 6 7
BRANCH 6 21
ATOM     21  CB  LEU B 365      14.783  87.379  13.214  1.00 44.28 LIG 0.04  C 
BRANCH 21 22
ATOM     22  CG  LEU B 365      14.525  85.877  13.189  1.00 49.51 LIG-0.02  C 
ATOM     23  CD1 LEU B 365      14.809  85.253  14.531  1.00 53.42 LIG 0.01  C 
ATOM     24  CD2 LEU B 365      13.067  85.582  12.722  1.00 51.82 LIG 0.01  C 
ENDBRANCH 21 22
ENDBRANCH 6 21
ENDBRANCH 4 6
ENDBRANCH 1 2
BRANCH 1 25
ATOM     25  C   GLN B 366      10.235  88.947  12.693  1.00 40.92 LIG 0.24  C 
ATOM     26  N   THR B 367       9.409  89.763  13.351  1.00 37.18 LIG-0.34  N 
ATOM     27 H    THR B 367       9.475  90.621  13.370  1.00 37.18 LIG 0.16  HD
ATOM     28 O    GLN B 366      10.065  87.724  12.602  1.00 43.39 LIG-0.27  OA
BRANCH 26 29
ATOM     29  CA  THR B 367       8.306  89.210  14.101  1.00 39.45 LIG 0.20  C 
BRANCH 29 30
ATOM     30  CB  THR B 367       8.796  88.530  15.384  1.00 41.55 LIG 0.15  C 
ATOM     31  CG2 THR B 367       7.607  88.202  16.244  1.00 46.47 LIG 0.04  C 
BRANCH 30 32
ATOM     32 OG1  THR B 367       9.534  87.361  15.028  1.00 42.44 LIG-0.39  OA
ATOM     33 HG1  THR B 367      10.315  87.578  14.811  1.00 42.44 LIG 0.21  HD
ENDBRANCH 30 32
ENDBRANCH 29 30
BRANCH 29 34
ATOM     34  C   THR B 367       7.363  90.332  14.444  1.00 39.06 LIG 0.24  C 
ATOM     35  N   SER B 368       6.210  90.283  13.828  1.00 40.73 LIG-0.34  N 
ATOM     36 H    SER B 368       6.017  89.706  13.219  1.00 40.73 LIG 0.16  HD
ATOM     37 O    THR B 367       7.654  91.133  15.344  1.00 38.11 LIG-0.27  OA
BRANCH 35 38
ATOM     38  CA  SER B 368       5.149  91.209  14.124  1.00 41.63 LIG 0.20  C 
BRANCH 38 39
ATOM     39  CB  SER B 368       4.030  91.053  13.101  1.00 43.79 LIG 0.20  C 
BRANCH 39 40
ATOM     40 OG   SER B 368       3.132  92.137  13.151  1.00 46.28 LIG-0.40  OA
ATOM     41 HG   SER B 368       3.394  92.693  13.724  1.00 46.28 LIG 0.21  HD
ENDBRANCH 39 40
ENDBRANCH 38 39
BRANCH 38 42
ATOM     42  C   SER B 368       4.626  90.925  15.517  1.00 44.50 LIG 0.24  C 
ATOM     43 O    SER B 368       4.588  89.773  15.923  1.00 47.26 LIG-0.27  OA
ATOM     44  N   ILE B 369       4.170  91.958  16.183  1.00 46.03 LIG-0.34  N 
ATOM     45 H    ILE B 369       4.068  92.739  15.840  1.00 46.03 LIG 0.16  HD
BRANCH 44 46
ATOM     46  CA  ILE B 369       3.788  91.868  17.604  1.00 49.82 LIG 0.19  C 
BRANCH 46 47
ATOM     47  C   ILE B 369       2.629  92.787  17.932  1.00 51.12 LIG 0.20  C 
ATOM     48 OXT  ILE B 369       2.429  93.753  17.220  1.00 48.45 LIG-0.65  OA
ATOM     49 O    ILE B 369       1.859  92.613  18.891  1.00 56.65 LIG-0.65  OA
ENDBRANCH 46 47
BRANCH 46 50
ATOM     50  CB  ILE B 369       4.965  92.231  18.463  1.00 51.86 LIG 0.01  C 
ATOM     51  CG2 ILE B 369       5.291  91.130  19.554  1.00 50.67 LIG 0.01  C 
BRANCH 50 52
ATOM     52  CG1 ILE B 369       6.196  92.493  17.632  1.00 48.80 LIG 0.00  C 
ATOM     53  CD1 ILE B 369       7.294  91.900  18.297  1.00 47.56 LIG 0.01  C 
ENDBRANCH 50 52
ENDBRANCH 46 50
ENDBRANCH 44 46
ENDBRANCH 38 42
ENDBRANCH 35 38
ENDBRANCH 29 34
ENDBRANCH 26 29
ENDBRANCH 1 25
BRANCH 1 54
ATOM     54  CB  GLN B 366      10.775  89.956  10.532  1.00 39.69 LIG 0.04  C 
BRANCH 54 55
ATOM     55  CG  GLN B 366      11.723  90.764   9.742  1.00 41.05 LIG 0.10  C 
BRANCH 55 56
ATOM     56  CD  GLN B 366      11.062  91.885   8.970  1.00 41.66 LIG 0.21  C 
ATOM     57 OE1  GLN B 366      10.398  92.756   9.552  1.00 35.58 LIG-0.27  OA
ATOM     58  NE2 GLN B 366      11.292  91.887   7.644  1.00 36.50 LIG-0.37  N 
ATOM     59 22HE GLN B 366      10.971  92.517   7.153  1.00 36.50 LIG 0.16  HD
ATOM     60 21HE GLN B 366      11.760  91.259   7.288  1.00 36.50 LIG 0.16  HD
ENDBRANCH 55 56
ENDBRANCH 54 55
ENDBRANCH 1 54
TORSDOF 25
ENDMDL
MODEL 2
USER: ADFR SOLUTION from run 23
USER: SCORE 17.986791 LL:  -3.626 LR: -17.192 RR:   0.000 FEB:  -9.734
USER: RMSD 2.318263
USER: SEED 22
USER: STATUS no improvement in best in 2 clusters for 5 generations
USER: GENES 27
USER: genes 0 Translation |==|  0.49761 0.52539 0.46742
USER: genes 1 Rotation |==|  0.50192 0.49729 0.50266 0.99998
USER: genes 2 Torsion [CB]-CA--N-[C] |==|  0.27411
USER: genes 3 Torsion [N]-C--CA-[N] |==|  0.45613
USER: genes 4 Torsion [C]-CA--N-[C] |==|  0.68365
USER: genes 5 Torsion [N]-C--CA-[N] |==|  0.34940
USER: genes 6 Torsion [C]-CA--CB-[CG] |==|  0.11627
USER: genes 7 Torsion [CA]-CB--CG-[OD2] |==|  0.72600
USER: genes 8 Torsion [C]-CA--N-[C] |==|  0.72584
USER: genes 9 Torsion [C]-CA--CB-[CG] |==|  0.31700
USER: genes 10 Torsion [CA]-CB--CG-[CD1] |==|  0.46173
USER: genes 11 Torsion [N]-CA--C-[N] |==|  0.37701
USER: genes 12 Torsion [C]-N--CA-[CB] |==|  0.20506
USER: genes 13 Torsion [N]-CA--CB-[CG2] |==|  0.55615
USER: genes 14 Torsion [CA]-CB--OG1-[HG1] |==|  0.24144
USER: genes 15 Torsion [N]-CA--C-[N] |==|  0.67036
USER: genes 16 Torsion [C]-N--CA-[CB] |==|  0.88880
USER: genes 17 Torsion [N]-CA--CB-[OG] |==|  0.29981
USER: genes 18 Torsion [CA]-CB--OG-[HG] |==|  0.77171
USER: genes 19 Torsion [N]-CA--C-[N] |==|  0.39905
USER: genes 20 Torsion [C]-N--CA-[CB] |==|  0.83418
USER: genes 21 Torsion [N]-CA--C-[OXT] |==|  0.79878
USER: genes 22 Torsion [N]-CA--CB-[CG2] |==|  0.44828
USER: genes 23 Torsion [CA]-CB--CG1-[CD1] |==|  0.30848
USER: genes 24 Torsion [N]-CA--CB-[CG] |==|  0.85212
USER: genes 25 Torsion [CA]-CB--CG-[CD] |==|  0.60424
USER: genes 26 Torsion [CB]-CG--CD-[OE1] |==|  0.12527
ROOT
ATOM      1  CA  GLN B 366      10.977  89.691  12.130  1.00 38.37 LIG 0.18  C 
ENDROOT
BRANCH 1 2
ATOM      2  N   GLN B 366      12.114  88.806  11.949  1.00 38.60 LIG-0.35  N 
ATOM      3 H    GLN B 366      11.903  87.992  11.766  1.00 38.60 LIG 0.16  HD
ATOM      4  C   LEU B 365      13.373  89.241  12.062  1.00 41.18 LIG 0.24  C 
ATOM      5 O    LEU B 365      13.679  90.427  12.307  1.00 36.84 LIG-0.27  OA
BRANCH 4 6
ATOM      6  CA  LEU B 365      14.440  88.162  11.937  1.00 40.54 LIG 0.18  C 
BRANCH 6 7
ATOM      7  N   LEU B 365      15.739  88.779  11.701  1.00 42.84 LIG-0.35  N 
ATOM      8  C   ASP B 364      16.363  88.595  10.544  1.00 57.74 LIG 0.24  C 
ATOM      9 O    ASP B 364      15.893  87.875   9.707  1.00 57.74 LIG-0.27  OA
ATOM     10 H    LEU B 365      16.043  89.249  12.353  1.00 42.84 LIG 0.16  HD
BRANCH 8 11
ATOM     11  CA  ASP B 364      17.709  89.264  10.288  1.00 64.41 LIG 0.19  C 
BRANCH 11 12
ATOM     12  CB  ASP B 364      17.631  90.271   9.160  1.00 67.32 LIG 0.15  C 
BRANCH 12 13
ATOM     13  CG  ASP B 364      16.399  91.091   9.221  1.00 64.46 LIG 0.17  C 
ATOM     14 OD2  ASP B 364      15.439  90.753   8.481  1.00 62.61 LIG-0.65  OA
ATOM     15 OD1  ASP B 364      16.425  92.081  10.010  1.00 62.85 LIG-0.65  OA
ENDBRANCH 12 13
ENDBRANCH 11 12
BRANCH 11 16
ATOM     16  N   ASP B 364      18.721  88.331   9.900  1.00 73.89 LIG-0.35  N 
ATOM     17  C   ACE B 363      19.616  87.831  10.708  1.00 53.98 LIG 0.21  C 
ATOM     18  CH3 ACE B 363      20.573  86.943   9.949  1.00 56.03 LIG 0.12  C 
ATOM     19 O    ACE B 363      19.646  88.039  11.948  1.00 54.37 LIG-0.27  OA
ATOM     20 H    ASP B 364      18.686  88.125   9.066  1.00 73.89 LIG 0.16  HD
ENDBRANCH 11 16
ENDBRANCH 8 11
ENDBRANCH 6 7
BRANCH 6 21
ATOM     21  CB  LEU B 365      14.399  87.275  13.214  1.00 44.28 LIG 0.04  C 
BRANCH 21 22
ATOM     22  CG  LEU B 365      13.977  85.817  13.064  1.00 49.51 LIG-0.02  C 
ATOM     23  CD1 LEU B 365      14.306  85.025  14.303  1.00 53.42 LIG 0.01  C 
ATOM     24  CD2 LEU B 365      12.461  85.721  12.714  1.00 51.82 LIG 0.01  C 
ENDBRANCH 21 22
ENDBRANCH 6 21
ENDBRANCH 4 6
ENDBRANCH 1 2
BRANCH 1 25
ATOM     25  C   GLN B 366       9.860  88.965  12.837  1.00 40.92 LIG 0.24  C 
ATOM     26  N   THR B 367       9.253  89.638  13.817  1.00 37.18 LIG-0.34  N 
ATOM     27 H    THR B 367       9.460  90.433  14.071  1.00 37.18 LIG 0.16  HD
ATOM     28 O    GLN B 366       9.481  87.860  12.425  1.00 43.39 LIG-0.27  OA
BRANCH 26 29
ATOM     29  CA  THR B 367       8.158  89.025  14.532  1.00 39.45 LIG 0.20  C 
BRANCH 29 30
ATOM     30  CB  THR B 367       8.662  87.940  15.490  1.00 41.55 LIG 0.15  C 
ATOM     31  CG2 THR B 367       7.522  87.019  15.823  1.00 46.47 LIG 0.04  C 
BRANCH 30 32
ATOM     32 OG1  THR B 367       9.743  87.246  14.867  1.00 42.44 LIG-0.39  OA
ATOM     33 HG1  THR B 367      10.462  87.650  15.023  1.00 42.44 LIG 0.21  HD
ENDBRANCH 30 32
ENDBRANCH 29 30
BRANCH 29 34
ATOM     34  C   THR B 367       7.444  90.100  15.306  1.00 39.06 LIG 0.24  C 
ATOM     35  N   SER B 368       7.447  89.932  16.603  1.00 40.73 LIG-0.34  N 
ATOM     36 H    SER B 368       7.762  89.233  16.994  1.00 40.73 LIG 0.16  HD
ATOM     37 O    THR B 367       7.023  91.110  14.722  1.00 38.11 LIG-0.27  OA
BRANCH 35 38
ATOM     38  CA  SER B 368       6.912  90.922  17.501  1.00 41.63 LIG 0.20  C 
BRANCH 38 39
ATOM     39  CB  SER B 368       7.292  92.315  17.015  1.00 43.79 LIG 0.20  C 
BRANCH 39 40
ATOM     40 OG   SER B 368       6.180  92.998  16.487  1.00 46.28 LIG-0.40  OA
ATOM     41 HG   SER B 368       6.055  92.758  15.692  1.00 46.28 LIG 0.21  HD
ENDBRANCH 39 40
ENDBRANCH 38 39
BRANCH 38 42
ATOM     42  C   SER B 368       5.404  90.777  17.545  1.00 44.50 LIG 0.24  C 
ATOM     43 O    SER B 368       4.790  90.542  16.516  1.00 47.26 LIG-0.27  OA
ATOM     44  N   ILE B 369       4.839  90.993  18.708  1.00 46.03 LIG-0.34  N 
ATOM     45 H    ILE B 369       5.259  91.298  19.393  1.00 46.03 LIG 0.16  HD
BRANCH 44 46
ATOM     46  CA  ILE B 369       3.408  90.727  18.946  1.00 49.82 LIG 0.19  C 
BRANCH 46 47
ATOM     47  C   ILE B 369       3.069  89.265  18.745  1.00 51.12 LIG 0.20  C 
ATOM     48 OXT  ILE B 369       3.048  88.818  17.613  1.00 48.45 LIG-0.65  OA
ATOM     49 O    ILE B 369       2.810  88.480  19.674  1.00 56.65 LIG-0.65  OA
ENDBRANCH 46 47
BRANCH 46 50
ATOM     50  CB  ILE B 369       2.582  91.559  18.009  1.00 51.86 LIG 0.01  C 
ATOM     51  CG2 ILE B 369       1.101  91.019  17.854  1.00 50.67 LIG 0.01  C 
BRANCH 50 52
ATOM     52  CG1 ILE B 369       2.545  93.004  18.439  1.00 48.80 LIG 0.00  C 
ATOM     53  CD1 ILE B 369       3.275  93.753  17.487  1.00 47.56 LIG 0.01  C 
ENDBRANCH 50 52
ENDBRANCH 46 50
ENDBRANCH 44 46
ENDBRANCH 38 42
ENDBRANCH 35 38
ENDBRANCH 29 34
ENDBRANCH 26 29
ENDBRANCH 1 25
BRANCH 1 54
ATOM     54  CB  GLN B 366      10.407  90.185  10.790  1.00 39.69 LIG 0.04  C 
BRANCH 54 55
ATOM     55  CG  GLN B 366      11.455  90.791   9.946  1.00 41.05 LIG 0.10  C 
BRANCH 55 56
ATOM     56  CD  GLN B 366      10.979  91.995   9.164  1.00 41.66 LIG 0.21  C 
ATOM     57 OE1  GLN B 366      10.294  92.877   9.704  1.00 35.58 LIG-0.27  OA
ATOM     58  NE2 GLN B 366      11.394  92.054   7.886  1.00 36.50 LIG-0.37  N 
ATOM     59 22HE GLN B 366      11.184  92.730   7.396  1.00 36.50 LIG 0.16  HD
ATOM     60 21HE GLN B 366      11.868  91.416   7.558  1.00 36.50 LIG 0.16  HD
ENDBRANCH 55 56
ENDBRANCH 54 55
ENDBRANCH 1 54
TORSDOF 25
ENDMDL
