MODEL 1
USER: ADFR SOLUTION from run 143
USER: SCORE 15.233052 LL:  -3.330 LR: -16.354 RR:   0.000 FEB:  -9.792
USER: RMSD 4.167914
USER: SEED 142
USER: STATUS searching
USER: GENES 24
USER: genes 0 Translation |==|  0.33206 0.48323 0.44408
USER: genes 1 Rotation |==|  0.56043 0.54059 0.54890 0.99225
USER: genes 2 Torsion [CB]-CA--N-[C] |==|  0.23262
USER: genes 3 Torsion [N]-C--CA-[N] |==|  0.49892
USER: genes 4 Torsion [C]-CA--N-[C] |==|  0.76628
USER: genes 5 Torsion [N]-C--CA-[N] |==|  0.25149
USER: genes 6 Torsion [C]-CA--N-[H1] |==|  0.37870
USER: genes 7 Torsion [C]-CA--CB-[CG] |==|  0.52664
USER: genes 8 Torsion [CA]-CB--CG-[CD] |==|  0.88754
USER: genes 9 Torsion [CB]-CG--CD-[NE] |==|  0.40238
USER: genes 10 Torsion [CG]-CD--NE-[CZ] |==|  0.61899
USER: genes 11 Torsion [N]-CA--CB-[OG1] |==|  0.52718
USER: genes 12 Torsion [CA]-CB--OG1-[HG1] |==|  0.79498
USER: genes 13 Torsion [N]-CA--C-[N] |==|  0.37624
USER: genes 14 Torsion [C]-N--CA-[CB] |==|  0.47582
USER: genes 15 Torsion [N]-CA--C-[N] |==|  0.01158
USER: genes 16 Torsion [C]-N--CA-[CB] |==|  0.54345
USER: genes 17 Torsion [N]-CA--C-[N] |==|  0.42669
USER: genes 18 Torsion [C]-N--CA-[CB] |==|  0.44573
USER: genes 19 Torsion [N]-CA--CB-[CG2] |==|  0.83056
USER: genes 20 Torsion [CA]-CB--OG1-[HG1] |==|  0.91805
USER: genes 21 Torsion [N]-CA--C-[N] |==|  0.88517
USER: genes 22 Torsion [C]-N--CA-[C] |==|  0.77152
USER: genes 23 Torsion [N]-CA--C-[O] |==|  0.98797
ROOT
ATOM      1  CA  THR G   3      14.359  37.852  42.031  1.00 68.23 LIG 0.20  C 
ENDROOT
BRANCH 1 2
ATOM      2  N   THR G   3      15.773  37.842  41.666  1.00 68.42 LIG-0.34  N 
ATOM      3  C   ARG G   2      16.204  37.628  40.426  1.00 70.38 LIG 0.24  C 
ATOM      4 O    ARG G   2      15.464  37.311  39.487  1.00 69.46 LIG-0.27  OA
ATOM      5 H    THR G   3      16.301  37.986  42.330  1.00 68.42 LIG 0.16  HD
BRANCH 3 6
ATOM      6  CA  ARG G   2      17.708  37.768  40.218  1.00 72.62 LIG 0.18  C 
BRANCH 6 7
ATOM      7  N   ARG G   2      18.026  37.497  38.819  1.00 74.86 LIG-0.35  N 
ATOM      8  C   ALA G   1      18.203  36.260  38.360  1.00 76.29 LIG 0.25  C 
ATOM      9 O    ALA G   1      18.290  35.267  39.088  1.00 75.70 LIG-0.27  OA
ATOM     10 H    ARG G   2      18.087  38.201  38.329  1.00 74.86 LIG 0.16  HD
BRANCH 8 11
ATOM     11  CA  ALA G   1      18.308  36.119  36.849  1.00 78.97 LIG 0.27  C 
ATOM     12  CB  ALA G   1      17.706  34.789  36.410  1.00 79.33 LIG 0.05  C 
BRANCH 11 13
ATOM     13  N   ALA G   1      19.727  36.226  36.411  1.00 81.42 LIG-0.07  N 
ATOM     14 H3   ALA G   1      20.264  36.115  37.112  1.00 81.42 LIG 0.28  HD
ATOM     15 H2   ALA G   1      19.868  37.029  36.053  1.00 81.42 LIG 0.28  HD
ATOM     16 H1   ALA G   1      19.898  35.598  35.804  1.00 81.42 LIG 0.28  HD
ENDBRANCH 11 13
ENDBRANCH 8 11
ENDBRANCH 6 7
BRANCH 6 17
ATOM     17  CB  ARG G   2      18.188  39.164  40.627  1.00 73.45 LIG 0.04  C 
BRANCH 17 18
ATOM     18  CG  ARG G   2      19.627  39.442  40.229  1.00 75.79 LIG 0.02  C 
BRANCH 18 19
ATOM     19  CD  ARG G   2      20.531  38.239  40.448  1.00 77.52 LIG 0.14  C 
BRANCH 19 20
ATOM     20  NE  ARG G   2      21.565  38.153  39.414  1.00 80.25 LIG-0.23  N 
ATOM     21  CZ  ARG G   2      21.953  37.035  38.792  1.00 82.01 LIG 0.67  C 
ATOM     22  NH1 ARG G   2      21.407  35.850  39.076  1.00 81.47 LIG-0.23  N 
ATOM     23  NH2 ARG G   2      22.910  37.100  37.870  1.00 84.93 LIG-0.23  N 
ATOM     24 1HH1 ARG G   2      20.791  35.793  39.673  1.00 81.47 LIG 0.17  HD
ATOM     25 2HH1 ARG G   2      21.673  35.144  38.663  1.00 81.47 LIG 0.17  HD
ATOM     26 2HH2 ARG G   2      23.167  36.386  37.464  1.00 84.93 LIG 0.17  HD
ATOM     27 1HH2 ARG G   2      23.273  37.856  37.679  1.00 84.93 LIG 0.17  HD
ATOM     28 HE   ARG G   2      21.956  38.885  39.187  1.00 80.25 LIG 0.18  HD
ENDBRANCH 19 20
ENDBRANCH 18 19
ENDBRANCH 17 18
ENDBRANCH 6 17
ENDBRANCH 3 6
ENDBRANCH 1 2
BRANCH 1 29
ATOM     29  CB  THR G   3      13.818  36.426  42.287  1.00 68.23 LIG 0.15  C 
ATOM     30  CG2 THR G   3      14.428  35.836  43.545  1.00 68.63 LIG 0.04  C 
BRANCH 29 31
ATOM     31 OG1  THR G   3      12.391  36.455  42.416  1.00 67.51 LIG-0.39  OA
ATOM     32 HG1  THR G   3      12.184  36.787  43.159  1.00 67.51 LIG 0.21  HD
ENDBRANCH 29 31
ENDBRANCH 1 29
BRANCH 1 33
ATOM     33  C   THR G   3      14.140  38.704  43.276  1.00 68.02 LIG 0.24  C 
ATOM     34  N   ALA G   4      13.100  39.535  43.233  1.00 68.86 LIG-0.35  N 
ATOM     35 H    ALA G   4      12.602  39.636  42.539  1.00 68.86 LIG 0.16  HD
ATOM     36 O    THR G   3      14.895  38.612  44.246  1.00 67.54 LIG-0.27  OA
BRANCH 34 37
ATOM     37  CA  ALA G   4      12.702  40.364  44.375  1.00 69.75 LIG 0.17  C 
ATOM     38  CB  ALA G   4      11.626  41.351  43.952  1.00 70.86 LIG 0.04  C 
BRANCH 37 39
ATOM     39  C   ALA G   4      12.222  39.535  45.573  1.00 71.43 LIG 0.24  C 
ATOM     40  N   ALA G   5      12.310  38.208  45.458  1.00 71.85 LIG-0.35  N 
ATOM     41 H    ALA G   5      12.561  37.809  44.739  1.00 71.85 LIG 0.16  HD
ATOM     42 O    ALA G   4      11.784  40.098  46.580  1.00 72.80 LIG-0.27  OA
BRANCH 40 43
ATOM     43  CA  ALA G   5      11.982  37.298  46.562  1.00 72.89 LIG 0.17  C 
ATOM     44  CB  ALA G   5      12.531  35.905  46.284  1.00 72.65 LIG 0.04  C 
BRANCH 43 45
ATOM     45  C   ALA G   5      12.499  37.815  47.908  1.00 72.87 LIG 0.24  C 
ATOM     46  N   THR G   6      11.843  37.416  49.001  1.00 71.86 LIG-0.34  N 
ATOM     47 H    THR G   6      11.151  36.905  48.981  1.00 71.86 LIG 0.16  HD
ATOM     48 O    ALA G   5      13.478  38.564  47.948  1.00 74.40 LIG-0.27  OA
BRANCH 46 49
ATOM     49  CA  THR G   6      12.253  37.820  50.356  1.00 72.17 LIG 0.20  C 
BRANCH 49 50
ATOM     50  CB  THR G   6      11.115  37.657  51.390  1.00 71.29 LIG 0.15  C 
ATOM     51  CG2 THR G   6       9.917  38.529  51.022  1.00 70.64 LIG 0.04  C 
BRANCH 50 52
ATOM     52 OG1  THR G   6      10.707  36.285  51.456  1.00 70.47 LIG-0.39  OA
ATOM     53 HG1  THR G   6      10.832  35.919  50.711  1.00 70.47 LIG 0.21  HD
ENDBRANCH 50 52
ENDBRANCH 49 50
BRANCH 49 54
ATOM     54  C   THR G   6      13.491  37.056  50.849  1.00 73.53 LIG 0.24  C 
ATOM     55  N   ALA G   7      13.541  35.748  50.577  1.00 73.25 LIG-0.35  N 
ATOM     56 H    ALA G   7      12.888  35.315  50.223  1.00 73.25 LIG 0.16  HD
ATOM     57 O    THR G   6      14.370  37.651  51.476  1.00 75.15 LIG-0.27  OA
BRANCH 55 58
ATOM     58  CA  ALA G   7      14.720  34.916  50.856  1.00 74.45 LIG 0.16  C 
ATOM     59  CB  ALA G   7      14.315  33.458  51.022  1.00 73.04 LIG 0.04  C 
BRANCH 58 60
ATOM     60  C   ALA G   7      15.754  35.052  49.738  1.00 76.13 LIG 0.22  C 
ATOM     61 O    ALA G   7      15.515  35.720  48.731  1.00 77.97 LIG-0.29  OA
ENDBRANCH 58 60
ENDBRANCH 55 58
ENDBRANCH 49 54
ENDBRANCH 46 49
ENDBRANCH 43 45
ENDBRANCH 40 43
ENDBRANCH 37 39
ENDBRANCH 34 37
ENDBRANCH 1 33
TORSDOF 22
ENDMDL
MODEL 2
USER: ADFR SOLUTION from run 165
USER: SCORE 16.472147 LL:  -3.432 LR: -16.338 RR:   0.000 FEB:  -9.775
USER: RMSD 4.370726
USER: SEED 164
USER: STATUS searching
USER: GENES 24
USER: genes 0 Translation |==|  0.32052 0.47775 0.44664
USER: genes 1 Rotation |==|  0.52291 0.54264 0.55749 0.99432
USER: genes 2 Torsion [CB]-CA--N-[C] |==|  0.24268
USER: genes 3 Torsion [N]-C--CA-[N] |==|  0.52219
USER: genes 4 Torsion [C]-CA--N-[C] |==|  0.74269
USER: genes 5 Torsion [N]-C--CA-[N] |==|  0.28092
USER: genes 6 Torsion [C]-CA--N-[H1] |==|  0.69723
USER: genes 7 Torsion [C]-CA--CB-[CG] |==|  0.51810
USER: genes 8 Torsion [CA]-CB--CG-[CD] |==|  0.91373
USER: genes 9 Torsion [CB]-CG--CD-[NE] |==|  0.41001
USER: genes 10 Torsion [CG]-CD--NE-[CZ] |==|  0.57736
USER: genes 11 Torsion [N]-CA--CB-[OG1] |==|  0.54782
USER: genes 12 Torsion [CA]-CB--OG1-[HG1] |==|  0.80899
USER: genes 13 Torsion [N]-CA--C-[N] |==|  0.40177
USER: genes 14 Torsion [C]-N--CA-[CB] |==|  0.55556
USER: genes 15 Torsion [N]-CA--C-[N] |==|  0.85000
USER: genes 16 Torsion [C]-N--CA-[CB] |==|  0.86345
USER: genes 17 Torsion [N]-CA--C-[N] |==|  0.91898
USER: genes 18 Torsion [C]-N--CA-[CB] |==|  0.21578
USER: genes 19 Torsion [N]-CA--CB-[CG2] |==|  0.09180
USER: genes 20 Torsion [CA]-CB--OG1-[HG1] |==|  0.21043
USER: genes 21 Torsion [N]-CA--C-[N] |==|  0.86101
USER: genes 22 Torsion [C]-N--CA-[C] |==|  0.53526
USER: genes 23 Torsion [N]-CA--C-[O] |==|  0.22294
ROOT
ATOM      1  CA  THR G   3      14.100  37.753  42.082  1.00 68.23 LIG 0.20  C 
ENDROOT
BRANCH 1 2
ATOM      2  N   THR G   3      15.517  37.756  41.735  1.00 68.42 LIG-0.34  N 
ATOM      3  C   ARG G   2      15.971  37.451  40.522  1.00 70.38 LIG 0.24  C 
ATOM      4 O    ARG G   2      15.253  37.033  39.606  1.00 69.46 LIG-0.27  OA
ATOM      5 H    THR G   3      16.032  37.973  42.389  1.00 68.42 LIG 0.16  HD
BRANCH 3 6
ATOM      6  CA  ARG G   2      17.473  37.620  40.319  1.00 72.62 LIG 0.18  C 
BRANCH 6 7
ATOM      7  N   ARG G   2      17.788  37.434  38.905  1.00 74.86 LIG-0.35  N 
ATOM      8  C   ALA G   1      18.139  36.251  38.407  1.00 76.29 LIG 0.25  C 
ATOM      9 O    ALA G   1      18.398  35.266  39.105  1.00 75.70 LIG-0.27  OA
ATOM     10 H    ARG G   2      17.727  38.151  38.433  1.00 74.86 LIG 0.16  HD
BRANCH 8 11
ATOM     11  CA  ALA G   1      18.222  36.165  36.891  1.00 78.97 LIG 0.27  C 
ATOM     12  CB  ALA G   1      17.575  34.871  36.410  1.00 79.33 LIG 0.05  C 
BRANCH 11 13
ATOM     13  N   ALA G   1      19.638  36.246  36.438  1.00 81.42 LIG-0.07  N 
ATOM     14 H3   ALA G   1      19.805  35.587  35.863  1.00 81.42 LIG 0.28  HD
ATOM     15 H2   ALA G   1      20.179  36.169  37.141  1.00 81.42 LIG 0.28  HD
ATOM     16 H1   ALA G   1      19.779  37.029  36.040  1.00 81.42 LIG 0.28  HD
ENDBRANCH 11 13
ENDBRANCH 8 11
ENDBRANCH 6 7
BRANCH 6 17
ATOM     17  CB  ARG G   2      17.938  38.995  40.807  1.00 73.45 LIG 0.04  C 
BRANCH 17 18
ATOM     18  CG  ARG G   2      19.395  39.281  40.487  1.00 75.79 LIG 0.02  C 
BRANCH 18 19
ATOM     19  CD  ARG G   2      20.244  38.019  40.473  1.00 77.52 LIG 0.14  C 
BRANCH 19 20
ATOM     20  NE  ARG G   2      21.332  38.119  39.497  1.00 80.25 LIG-0.23  N 
ATOM     21  CZ  ARG G   2      21.906  37.092  38.862  1.00 82.01 LIG 0.67  C 
ATOM     22  NH1 ARG G   2      21.518  35.833  39.076  1.00 81.47 LIG-0.23  N 
ATOM     23  NH2 ARG G   2      22.891  37.326  38.000  1.00 84.93 LIG-0.23  N 
ATOM     24 1HH1 ARG G   2      20.885  35.667  39.634  1.00 81.47 LIG 0.17  HD
ATOM     25 2HH1 ARG G   2      21.901  35.187  38.656  1.00 81.47 LIG 0.17  HD
ATOM     26 2HH2 ARG G   2      23.266  36.672  37.587  1.00 84.93 LIG 0.17  HD
ATOM     27 1HH2 ARG G   2      23.154  38.133  37.855  1.00 84.93 LIG 0.17  HD
ATOM     28 HE   ARG G   2      21.628  38.907  39.317  1.00 80.25 LIG 0.18  HD
ENDBRANCH 19 20
ENDBRANCH 18 19
ENDBRANCH 17 18
ENDBRANCH 6 17
ENDBRANCH 3 6
ENDBRANCH 1 2
BRANCH 1 29
ATOM     29  CB  THR G   3      13.620  36.356  42.541  1.00 68.23 LIG 0.15  C 
ATOM     30  CG2 THR G   3      14.089  36.062  43.954  1.00 68.63 LIG 0.04  C 
BRANCH 29 31
ATOM     31 OG1  THR G   3      12.190  36.283  42.487  1.00 67.51 LIG-0.39  OA
ATOM     32 HG1  THR G   3      11.861  36.780  43.078  1.00 67.51 LIG 0.21  HD
ENDBRANCH 29 31
ENDBRANCH 1 29
BRANCH 1 33
ATOM     33  C   THR G   3      13.824  38.767  43.188  1.00 68.02 LIG 0.24  C 
ATOM     34  N   ALA G   4      12.653  39.399  43.115  1.00 68.86 LIG-0.35  N 
ATOM     35 H    ALA G   4      12.097  39.293  42.468  1.00 68.86 LIG 0.16  HD
ATOM     36 O    THR G   3      14.651  38.972  44.078  1.00 67.54 LIG-0.27  OA
BRANCH 34 37
ATOM     37  CA  ALA G   4      12.198  40.342  44.140  1.00 69.75 LIG 0.17  C 
ATOM     38  CB  ALA G   4      10.691  40.513  44.059  1.00 70.86 LIG 0.04  C 
BRANCH 37 39
ATOM     39  C   ALA G   4      12.611  39.925  45.557  1.00 71.43 LIG 0.24  C 
ATOM     40  N   ALA G   5      12.266  38.696  45.946  1.00 71.85 LIG-0.35  N 
ATOM     41 H    ALA G   5      11.785  38.165  45.470  1.00 71.85 LIG 0.16  HD
ATOM     42 O    ALA G   4      13.233  40.711  46.278  1.00 72.80 LIG-0.27  OA
BRANCH 40 43
ATOM     43  CA  ALA G   5      12.682  38.130  47.234  1.00 72.89 LIG 0.17  C 
ATOM     44  CB  ALA G   5      14.178  38.320  47.442  1.00 72.65 LIG 0.04  C 
BRANCH 43 45
ATOM     45  C   ALA G   5      11.901  38.735  48.407  1.00 72.87 LIG 0.24  C 
ATOM     46  N   THR G   6      11.463  39.988  48.257  1.00 71.86 LIG-0.34  N 
ATOM     47 H    THR G   6      11.609  40.464  47.556  1.00 71.86 LIG 0.16  HD
ATOM     48 O    ALA G   5      11.703  38.070  49.426  1.00 74.40 LIG-0.27  OA
BRANCH 46 49
ATOM     49  CA  THR G   6      10.679  40.676  49.298  1.00 72.17 LIG 0.20  C 
BRANCH 49 50
ATOM     50  CB  THR G   6      11.563  41.183  50.462  1.00 71.29 LIG 0.15  C 
ATOM     51  CG2 THR G   6      12.943  41.595  49.957  1.00 70.64 LIG 0.04  C 
BRANCH 50 52
ATOM     52 OG1  THR G   6      10.934  42.298  51.105  1.00 70.47 LIG-0.39  OA
ATOM     53 HG1  THR G   6      10.303  42.025  51.587  1.00 70.47 LIG 0.21  HD
ENDBRANCH 50 52
ENDBRANCH 49 50
BRANCH 49 54
ATOM     54  C   THR G   6       9.864  41.851  48.740  1.00 73.53 LIG 0.24  C 
ATOM     55  N   ALA G   7      10.517  42.732  47.977  1.00 73.25 LIG-0.35  N 
ATOM     56 H    ALA G   7      11.370  42.714  47.860  1.00 73.25 LIG 0.16  HD
ATOM     57 O    THR G   6       8.666  41.953  49.016  1.00 75.15 LIG-0.27  OA
BRANCH 55 58
ATOM     58  CA  ALA G   7       9.846  43.824  47.258  1.00 74.45 LIG 0.16  C 
ATOM     59  CB  ALA G   7       9.344  44.877  48.236  1.00 73.04 LIG 0.04  C 
BRANCH 58 60
ATOM     60  C   ALA G   7      10.790  44.461  46.238  1.00 76.13 LIG 0.22  C 
ATOM     61 O    ALA G   7      10.987  43.936  45.141  1.00 77.97 LIG-0.29  OA
ENDBRANCH 58 60
ENDBRANCH 55 58
ENDBRANCH 49 54
ENDBRANCH 46 49
ENDBRANCH 43 45
ENDBRANCH 40 43
ENDBRANCH 37 39
ENDBRANCH 34 37
ENDBRANCH 1 33
TORSDOF 22
ENDMDL
MODEL 3
USER: ADFR SOLUTION from run 107
USER: SCORE 15.633316 LL:  -4.657 LR: -16.212 RR:   0.000 FEB:  -9.650
USER: RMSD 2.871429
USER: SEED 106
USER: STATUS searching
USER: GENES 24
USER: genes 0 Translation |==|  0.32204 0.48086 0.44598
USER: genes 1 Rotation |==|  0.51579 0.54330 0.55201 0.99515
USER: genes 2 Torsion [CB]-CA--N-[C] |==|  0.24639
USER: genes 3 Torsion [N]-C--CA-[N] |==|  0.52368
USER: genes 4 Torsion [C]-CA--N-[C] |==|  0.74004
USER: genes 5 Torsion [N]-C--CA-[N] |==|  0.27416
USER: genes 6 Torsion [C]-CA--N-[H1] |==|  0.70260
USER: genes 7 Torsion [C]-CA--CB-[CG] |==|  0.53907
USER: genes 8 Torsion [CA]-CB--CG-[CD] |==|  0.88439
USER: genes 9 Torsion [CB]-CG--CD-[NE] |==|  0.42593
USER: genes 10 Torsion [CG]-CD--NE-[CZ] |==|  0.58830
USER: genes 11 Torsion [N]-CA--CB-[OG1] |==|  0.32398
USER: genes 12 Torsion [CA]-CB--OG1-[HG1] |==|  0.26706
USER: genes 13 Torsion [N]-CA--C-[N] |==|  0.44528
USER: genes 14 Torsion [C]-N--CA-[CB] |==|  0.49571
USER: genes 15 Torsion [N]-CA--C-[N] |==|  0.94303
USER: genes 16 Torsion [C]-N--CA-[CB] |==|  0.27778
USER: genes 17 Torsion [N]-CA--C-[N] |==|  0.81111
USER: genes 18 Torsion [C]-N--CA-[CB] |==|  0.55607
USER: genes 19 Torsion [N]-CA--CB-[CG2] |==|  0.60534
USER: genes 20 Torsion [CA]-CB--OG1-[HG1] |==|  0.84440
USER: genes 21 Torsion [N]-CA--C-[N] |==|  0.88274
USER: genes 22 Torsion [C]-N--CA-[C] |==|  0.62809
USER: genes 23 Torsion [N]-CA--C-[O] |==|  0.67086
ROOT
ATOM      1  CA  THR G   3      14.134  37.809  42.069  1.00 68.23 LIG 0.20  C 
ENDROOT
BRANCH 1 2
ATOM      2  N   THR G   3      15.551  37.774  41.722  1.00 68.42 LIG-0.34  N 
ATOM      3  C   ARG G   2      15.997  37.448  40.512  1.00 70.38 LIG 0.24  C 
ATOM      4 O    ARG G   2      15.269  37.041  39.599  1.00 69.46 LIG-0.27  OA
ATOM      5 H    THR G   3      16.071  37.983  42.374  1.00 68.42 LIG 0.16  HD
BRANCH 3 6
ATOM      6  CA  ARG G   2      17.503  37.578  40.307  1.00 72.62 LIG 0.18  C 
BRANCH 6 7
ATOM      7  N   ARG G   2      17.813  37.386  38.893  1.00 74.86 LIG-0.35  N 
ATOM      8  C   ALA G   1      18.150  36.198  38.397  1.00 76.29 LIG 0.25  C 
ATOM      9 O    ALA G   1      18.401  35.212  39.096  1.00 75.70 LIG-0.27  OA
ATOM     10 H    ARG G   2      17.757  38.102  38.420  1.00 74.86 LIG 0.16  HD
BRANCH 8 11
ATOM     11  CA  ALA G   1      18.227  36.108  36.881  1.00 78.97 LIG 0.27  C 
ATOM     12  CB  ALA G   1      17.620  34.791  36.409  1.00 79.33 LIG 0.05  C 
BRANCH 11 13
ATOM     13  N   ALA G   1      19.638  36.232  36.420  1.00 81.42 LIG-0.07  N 
ATOM     14 H3   ALA G   1      19.814  35.593  35.825  1.00 81.42 LIG 0.28  HD
ATOM     15 H2   ALA G   1      20.186  36.148  37.116  1.00 81.42 LIG 0.28  HD
ATOM     16 H1   ALA G   1      19.758  37.029  36.042  1.00 81.42 LIG 0.28  HD
ENDBRANCH 11 13
ENDBRANCH 8 11
ENDBRANCH 6 7
BRANCH 6 17
ATOM     17  CB  ARG G   2      18.005  38.939  40.797  1.00 73.45 LIG 0.04  C 
BRANCH 17 18
ATOM     18  CG  ARG G   2      19.410  39.265  40.321  1.00 75.79 LIG 0.02  C 
BRANCH 18 19
ATOM     19  CD  ARG G   2      20.340  38.065  40.396  1.00 77.52 LIG 0.14  C 
BRANCH 19 20
ATOM     20  NE  ARG G   2      21.422  38.166  39.413  1.00 80.25 LIG-0.23  N 
ATOM     21  CZ  ARG G   2      22.013  37.137  38.798  1.00 82.01 LIG 0.67  C 
ATOM     22  NH1 ARG G   2      21.652  35.875  39.041  1.00 81.47 LIG-0.23  N 
ATOM     23  NH2 ARG G   2      22.990  37.372  37.926  1.00 84.93 LIG-0.23  N 
ATOM     24 1HH1 ARG G   2      21.025  35.708  39.605  1.00 81.47 LIG 0.17  HD
ATOM     25 2HH1 ARG G   2      22.047  35.228  38.632  1.00 81.47 LIG 0.17  HD
ATOM     26 2HH2 ARG G   2      23.377  36.717  37.524  1.00 84.93 LIG 0.17  HD
ATOM     27 1HH2 ARG G   2      23.236  38.181  37.762  1.00 84.93 LIG 0.17  HD
ATOM     28 HE   ARG G   2      21.700  38.955  39.215  1.00 80.25 LIG 0.18  HD
ENDBRANCH 19 20
ENDBRANCH 18 19
ENDBRANCH 17 18
ENDBRANCH 6 17
ENDBRANCH 3 6
ENDBRANCH 1 2
BRANCH 1 29
ATOM     29  CB  THR G   3      13.627  36.436  42.570  1.00 68.23 LIG 0.15  C 
ATOM     30  CG2 THR G   3      14.718  35.387  42.458  1.00 68.63 LIG 0.04  C 
BRANCH 29 31
ATOM     31 OG1  THR G   3      13.198  36.536  43.934  1.00 67.51 LIG-0.39  OA
ATOM     32 HG1  THR G   3      12.366  36.653  43.957  1.00 67.51 LIG 0.21  HD
ENDBRANCH 29 31
ENDBRANCH 1 29
BRANCH 1 33
ATOM     33  C   THR G   3      13.878  38.862  43.143  1.00 68.02 LIG 0.24  C 
ATOM     34  N   ALA G   4      12.619  39.280  43.256  1.00 68.86 LIG-0.35  N 
ATOM     35 H    ALA G   4      11.986  39.023  42.733  1.00 68.86 LIG 0.16  HD
ATOM     36 O    THR G   3      14.799  39.284  43.846  1.00 67.54 LIG-0.27  OA
BRANCH 34 37
ATOM     37  CA  ALA G   4      12.188  40.226  44.289  1.00 69.75 LIG 0.17  C 
ATOM     38  CB  ALA G   4      10.709  40.533  44.131  1.00 70.86 LIG 0.04  C 
BRANCH 37 39
ATOM     39  C   ALA G   4      12.479  39.727  45.710  1.00 71.43 LIG 0.24  C 
ATOM     40  N   ALA G   5      12.663  38.414  45.859  1.00 71.85 LIG-0.35  N 
ATOM     41 H    ALA G   5      12.569  37.845  45.221  1.00 71.85 LIG 0.16  HD
ATOM     42 O    ALA G   4      12.536  40.528  46.648  1.00 72.80 LIG-0.27  OA
BRANCH 40 43
ATOM     43  CA  ALA G   5      13.047  37.812  47.141  1.00 72.89 LIG 0.17  C 
ATOM     44  CB  ALA G   5      11.829  37.217  47.836  1.00 72.65 LIG 0.04  C 
BRANCH 43 45
ATOM     45  C   ALA G   5      14.137  36.748  46.975  1.00 72.87 LIG 0.24  C 
ATOM     46  N   THR G   6      13.792  35.626  46.337  1.00 71.86 LIG-0.34  N 
ATOM     47 H    THR G   6      13.002  35.472  46.036  1.00 71.86 LIG 0.16  HD
ATOM     48 O    ALA G   5      15.269  36.948  47.419  1.00 74.40 LIG-0.27  OA
BRANCH 46 49
ATOM     49  CA  THR G   6      14.753  34.536  46.089  1.00 72.17 LIG 0.20  C 
BRANCH 49 50
ATOM     50  CB  THR G   6      14.299  33.601  44.944  1.00 71.29 LIG 0.15  C 
ATOM     51  CG2 THR G   6      14.646  32.148  45.259  1.00 70.64 LIG 0.04  C 
BRANCH 50 52
ATOM     52 OG1  THR G   6      12.886  33.723  44.742  1.00 70.47 LIG-0.39  OA
ATOM     53 HG1  THR G   6      12.484  33.565  45.463  1.00 70.47 LIG 0.21  HD
ENDBRANCH 50 52
ENDBRANCH 49 50
BRANCH 49 54
ATOM     54  C   THR G   6      16.164  35.056  45.781  1.00 73.53 LIG 0.24  C 
ATOM     55  N   ALA G   7      16.256  36.112  44.967  1.00 73.25 LIG-0.35  N 
ATOM     56 H    ALA G   7      15.581  36.448  44.553  1.00 73.25 LIG 0.16  HD
ATOM     57 O    THR G   6      17.146  34.491  46.269  1.00 75.15 LIG-0.27  OA
BRANCH 55 58
ATOM     58  CA  ALA G   7      17.522  36.807  44.695  1.00 74.45 LIG 0.16  C 
ATOM     59  CB  ALA G   7      18.052  36.430  43.319  1.00 73.04 LIG 0.04  C 
BRANCH 58 60
ATOM     60  C   ALA G   7      17.338  38.322  44.791  1.00 76.13 LIG 0.22  C 
ATOM     61 O    ALA G   7      17.536  39.049  43.817  1.00 77.97 LIG-0.29  OA
ENDBRANCH 58 60
ENDBRANCH 55 58
ENDBRANCH 49 54
ENDBRANCH 46 49
ENDBRANCH 43 45
ENDBRANCH 40 43
ENDBRANCH 37 39
ENDBRANCH 34 37
ENDBRANCH 1 33
TORSDOF 22
ENDMDL
MODEL 4
USER: ADFR SOLUTION from run 79
USER: SCORE 16.983887 LL:  -3.095 LR: -16.148 RR:   0.000 FEB:  -9.585
USER: RMSD 4.453748
USER: SEED 78
USER: STATUS searching
USER: GENES 24
USER: genes 0 Translation |==|  0.31956 0.47370 0.45256
USER: genes 1 Rotation |==|  0.58469 0.54142 0.55191 0.98828
USER: genes 2 Torsion [CB]-CA--N-[C] |==|  0.20859
USER: genes 3 Torsion [N]-C--CA-[N] |==|  0.51474
USER: genes 4 Torsion [C]-CA--N-[C] |==|  0.72525
USER: genes 5 Torsion [N]-C--CA-[N] |==|  0.30188
USER: genes 6 Torsion [C]-CA--N-[H1] |==|  0.36502
USER: genes 7 Torsion [C]-CA--CB-[CG] |==|  0.49025
USER: genes 8 Torsion [CA]-CB--CG-[CD] |==|  0.95437
USER: genes 9 Torsion [CB]-CG--CD-[NE] |==|  0.39242
USER: genes 10 Torsion [CG]-CD--NE-[CZ] |==|  0.55464
USER: genes 11 Torsion [N]-CA--CB-[OG1] |==|  0.53138
USER: genes 12 Torsion [CA]-CB--OG1-[HG1] |==|  0.74426
USER: genes 13 Torsion [N]-CA--C-[N] |==|  0.59918
USER: genes 14 Torsion [C]-N--CA-[CB] |==|  0.83889
USER: genes 15 Torsion [N]-CA--C-[N] |==|  0.00287
USER: genes 16 Torsion [C]-N--CA-[CB] |==|  0.80556
USER: genes 17 Torsion [N]-CA--C-[N] |==|  0.03306
USER: genes 18 Torsion [C]-N--CA-[CB] |==|  0.76896
USER: genes 19 Torsion [N]-CA--CB-[CG2] |==|  0.85852
USER: genes 20 Torsion [CA]-CB--OG1-[HG1] |==|  0.99605
USER: genes 21 Torsion [N]-CA--C-[N] |==|  0.19484
USER: genes 22 Torsion [C]-N--CA-[C] |==|  0.54455
USER: genes 23 Torsion [N]-CA--C-[O] |==|  0.99649
ROOT
ATOM      1  CA  THR G   3      14.078  37.681  42.202  1.00 68.23 LIG 0.20  C 
ENDROOT
BRANCH 1 2
ATOM      2  N   THR G   3      15.487  37.715  41.822  1.00 68.42 LIG-0.34  N 
ATOM      3  C   ARG G   2      15.914  37.461  40.587  1.00 70.38 LIG 0.24  C 
ATOM      4 O    ARG G   2      15.180  37.068  39.674  1.00 69.46 LIG-0.27  OA
ATOM      5 H    THR G   3      16.014  37.914  42.470  1.00 68.42 LIG 0.16  HD
BRANCH 3 6
ATOM      6  CA  ARG G   2      17.409  37.657  40.355  1.00 72.62 LIG 0.18  C 
BRANCH 6 7
ATOM      7  N   ARG G   2      17.702  37.466  38.937  1.00 74.86 LIG-0.35  N 
ATOM      8  C   ALA G   1      18.183  36.320  38.462  1.00 76.29 LIG 0.25  C 
ATOM      9 O    ALA G   1      18.586  35.398  39.179  1.00 75.70 LIG-0.27  OA
ATOM     10 H    ARG G   2      17.536  38.153  38.447  1.00 74.86 LIG 0.16  HD
BRANCH 8 11
ATOM     11  CA  ALA G   1      18.230  36.194  36.947  1.00 78.97 LIG 0.27  C 
ATOM     12  CB  ALA G   1      17.565  34.891  36.516  1.00 79.33 LIG 0.05  C 
BRANCH 11 13
ATOM     13  N   ALA G   1      19.635  36.254  36.459  1.00 81.42 LIG-0.07  N 
ATOM     14 H3   ALA G   1      20.193  36.187  37.150  1.00 81.42 LIG 0.28  HD
ATOM     15 H2   ALA G   1      19.772  37.029  36.043  1.00 81.42 LIG 0.28  HD
ATOM     16 H1   ALA G   1      19.783  35.584  35.893  1.00 81.42 LIG 0.28  HD
ENDBRANCH 11 13
ENDBRANCH 8 11
ENDBRANCH 6 7
BRANCH 6 17
ATOM     17  CB  ARG G   2      17.856  39.046  40.823  1.00 73.45 LIG 0.04  C 
BRANCH 17 18
ATOM     18  CG  ARG G   2      19.354  39.266  40.693  1.00 75.79 LIG 0.02  C 
BRANCH 18 19
ATOM     19  CD  ARG G   2      20.118  37.963  40.515  1.00 77.52 LIG 0.14  C 
BRANCH 19 20
ATOM     20  NE  ARG G   2      21.217  38.117  39.558  1.00 80.25 LIG-0.23  N 
ATOM     21  CZ  ARG G   2      21.828  37.121  38.909  1.00 82.01 LIG 0.67  C 
ATOM     22  NH1 ARG G   2      21.473  35.846  39.088  1.00 81.47 LIG-0.23  N 
ATOM     23  NH2 ARG G   2      22.820  37.403  38.068  1.00 84.93 LIG-0.23  N 
ATOM     24 1HH1 ARG G   2      20.837  35.650  39.632  1.00 81.47 LIG 0.17  HD
ATOM     25 2HH1 ARG G   2      21.881  35.222  38.659  1.00 81.47 LIG 0.17  HD
ATOM     26 2HH2 ARG G   2      23.219  36.769  37.645  1.00 84.93 LIG 0.17  HD
ATOM     27 1HH2 ARG G   2      23.062  38.219  37.945  1.00 84.93 LIG 0.17  HD
ATOM     28 HE   ARG G   2      21.492  38.916  39.401  1.00 80.25 LIG 0.18  HD
ENDBRANCH 19 20
ENDBRANCH 18 19
ENDBRANCH 17 18
ENDBRANCH 6 17
ENDBRANCH 3 6
ENDBRANCH 1 2
BRANCH 1 29
ATOM     29  CB  THR G   3      13.548  36.232  42.324  1.00 68.23 LIG 0.15  C 
ATOM     30  CG2 THR G   3      14.149  35.539  43.533  1.00 68.63 LIG 0.04  C 
BRANCH 29 31
ATOM     31 OG1  THR G   3      12.119  36.238  42.438  1.00 67.51 LIG-0.39  OA
ATOM     32 HG1  THR G   3      11.903  36.253  43.249  1.00 67.51 LIG 0.21  HD
ENDBRANCH 29 31
ENDBRANCH 1 29
BRANCH 1 33
ATOM     33  C   THR G   3      13.870  38.405  43.528  1.00 68.02 LIG 0.24  C 
ATOM     34  N   ALA G   4      12.946  37.885  44.334  1.00 68.86 LIG-0.35  N 
ATOM     35 H    ALA G   4      12.453  37.215  44.118  1.00 68.86 LIG 0.16  HD
ATOM     36 O    THR G   3      14.528  39.409  43.809  1.00 67.54 LIG-0.27  OA
BRANCH 34 37
ATOM     37  CA  ALA G   4      12.680  38.411  45.675  1.00 69.75 LIG 0.17  C 
ATOM     38  CB  ALA G   4      13.947  38.367  46.514  1.00 70.86 LIG 0.04  C 
BRANCH 37 39
ATOM     39  C   ALA G   4      12.105  39.833  45.654  1.00 71.43 LIG 0.24  C 
ATOM     40  N   ALA G   5      11.907  40.382  44.454  1.00 71.85 LIG-0.35  N 
ATOM     41 H    ALA G   5      12.138  40.006  43.716  1.00 71.85 LIG 0.16  HD
ATOM     42 O    ALA G   4      11.846  40.413  46.713  1.00 72.80 LIG-0.27  OA
BRANCH 40 43
ATOM     43  CA  ALA G   5      11.271  41.693  44.282  1.00 72.89 LIG 0.17  C 
ATOM     44  CB  ALA G   5       9.791  41.618  44.630  1.00 72.65 LIG 0.04  C 
BRANCH 43 45
ATOM     45  C   ALA G   5      11.959  42.780  45.115  1.00 72.87 LIG 0.24  C 
ATOM     46  N   THR G   6      13.138  42.467  45.659  1.00 71.86 LIG-0.34  N 
ATOM     47 H    THR G   6      13.512  41.697  45.577  1.00 71.86 LIG 0.16  HD
ATOM     48 O    ALA G   5      11.424  43.882  45.256  1.00 74.40 LIG-0.27  OA
BRANCH 46 49
ATOM     49  CA  THR G   6      13.914  43.430  46.461  1.00 72.17 LIG 0.20  C 
BRANCH 49 50
ATOM     50  CB  THR G   6      14.764  44.377  45.582  1.00 71.29 LIG 0.15  C 
ATOM     51  CG2 THR G   6      15.598  43.586  44.578  1.00 70.64 LIG 0.04  C 
BRANCH 50 52
ATOM     52 OG1  THR G   6      13.912  45.293  44.883  1.00 70.47 LIG-0.39  OA
ATOM     53 HG1  THR G   6      13.110  45.127  45.068  1.00 70.47 LIG 0.21  HD
ENDBRANCH 50 52
ENDBRANCH 49 50
BRANCH 49 54
ATOM     54  C   THR G   6      13.027  44.271  47.391  1.00 73.53 LIG 0.24  C 
ATOM     55  N   ALA G   7      12.469  43.639  48.428  1.00 73.25 LIG-0.35  N 
ATOM     56 H    ALA G   7      12.517  42.787  48.542  1.00 73.25 LIG 0.16  HD
ATOM     57 O    THR G   6      12.848  45.467  47.152  1.00 75.15 LIG-0.27  OA
BRANCH 55 58
ATOM     58  CA  ALA G   7      11.715  44.335  49.480  1.00 74.45 LIG 0.16  C 
ATOM     59  CB  ALA G   7      10.354  44.774  48.959  1.00 73.04 LIG 0.04  C 
BRANCH 58 60
ATOM     60  C   ALA G   7      11.546  43.438  50.706  1.00 76.13 LIG 0.22  C 
ATOM     61 O    ALA G   7      11.989  42.289  50.719  1.00 77.97 LIG-0.29  OA
ENDBRANCH 58 60
ENDBRANCH 55 58
ENDBRANCH 49 54
ENDBRANCH 46 49
ENDBRANCH 43 45
ENDBRANCH 40 43
ENDBRANCH 37 39
ENDBRANCH 34 37
ENDBRANCH 1 33
TORSDOF 22
ENDMDL
MODEL 5
USER: ADFR SOLUTION from run 74
USER: SCORE 16.330804 LL:  -3.835 LR: -16.022 RR:   0.000 FEB:  -9.460
USER: RMSD 3.557959
USER: SEED 73
USER: STATUS searching
USER: GENES 24
USER: genes 0 Translation |==|  0.32665 0.46548 0.43913
USER: genes 1 Rotation |==|  0.58491 0.49495 0.49586 0.99269
USER: genes 2 Torsion [CB]-CA--N-[C] |==|  0.26636
USER: genes 3 Torsion [N]-C--CA-[N] |==|  0.49218
USER: genes 4 Torsion [C]-CA--N-[C] |==|  0.79365
USER: genes 5 Torsion [N]-C--CA-[N] |==|  0.14039
USER: genes 6 Torsion [C]-CA--N-[H1] |==|  0.80158
USER: genes 7 Torsion [C]-CA--CB-[CG] |==|  0.62390
USER: genes 8 Torsion [CA]-CB--CG-[CD] |==|  0.82267
USER: genes 9 Torsion [CB]-CG--CD-[NE] |==|  0.43751
USER: genes 10 Torsion [CG]-CD--NE-[CZ] |==|  0.57144
USER: genes 11 Torsion [N]-CA--CB-[OG1] |==|  0.35640
USER: genes 12 Torsion [CA]-CB--OG1-[HG1] |==|  0.21087
USER: genes 13 Torsion [N]-CA--C-[N] |==|  0.44691
USER: genes 14 Torsion [C]-N--CA-[CB] |==|  0.52446
USER: genes 15 Torsion [N]-CA--C-[N] |==|  0.40806
USER: genes 16 Torsion [C]-N--CA-[CB] |==|  0.83474
USER: genes 17 Torsion [N]-CA--C-[N] |==|  0.56111
USER: genes 18 Torsion [C]-N--CA-[CB] |==|  0.53099
USER: genes 19 Torsion [N]-CA--CB-[CG2] |==|  0.64940
USER: genes 20 Torsion [CA]-CB--OG1-[HG1] |==|  0.29630
USER: genes 21 Torsion [N]-CA--C-[N] |==|  0.88393
USER: genes 22 Torsion [C]-N--CA-[C] |==|  0.83401
USER: genes 23 Torsion [N]-CA--C-[O] |==|  0.38554
ROOT
ATOM      1  CA  THR G   3      14.238  37.533  41.930  1.00 68.23 LIG 0.20  C 
ENDROOT
BRANCH 1 2
ATOM      2  N   THR G   3      15.650  37.207  41.756  1.00 68.42 LIG-0.34  N 
ATOM      3  C   ARG G   2      16.261  37.222  40.574  1.00 70.38 LIG 0.24  C 
ATOM      4 O    ARG G   2      15.675  37.405  39.501  1.00 69.46 LIG-0.27  OA
ATOM      5 H    THR G   3      16.050  37.004  42.490  1.00 68.42 LIG 0.16  HD
BRANCH 3 6
ATOM      6  CA  ARG G   2      17.764  36.965  40.607  1.00 72.62 LIG 0.18  C 
BRANCH 6 7
ATOM      7  N   ARG G   2      18.276  36.946  39.239  1.00 74.86 LIG-0.35  N 
ATOM      8  C   ALA G   1      18.061  35.922  38.416  1.00 76.29 LIG 0.25  C 
ATOM      9 O    ALA G   1      17.577  34.845  38.778  1.00 75.70 LIG-0.27  OA
ATOM     10 H    ARG G   2      18.722  37.649  39.021  1.00 74.86 LIG 0.16  HD
BRANCH 8 11
ATOM     11  CA  ALA G   1      18.462  36.139  36.965  1.00 78.97 LIG 0.27  C 
ATOM     12  CB  ALA G   1      18.320  34.834  36.189  1.00 79.33 LIG 0.05  C 
BRANCH 11 13
ATOM     13  N   ALA G   1      19.856  36.654  36.878  1.00 81.42 LIG-0.07  N 
ATOM     14 H3   ALA G   1      20.134  36.619  36.033  1.00 81.42 LIG 0.28  HD
ATOM     15 H2   ALA G   1      20.389  36.155  37.387  1.00 81.42 LIG 0.28  HD
ATOM     16 H1   ALA G   1      19.880  37.497  37.163  1.00 81.42 LIG 0.28  HD
ENDBRANCH 11 13
ENDBRANCH 8 11
ENDBRANCH 6 7
BRANCH 6 17
ATOM     17  CB  ARG G   2      18.481  38.028  41.445  1.00 73.45 LIG 0.04  C 
BRANCH 17 18
ATOM     18  CG  ARG G   2      19.745  38.555  40.787  1.00 75.79 LIG 0.02  C 
BRANCH 18 19
ATOM     19  CD  ARG G   2      20.805  37.477  40.620  1.00 77.52 LIG 0.14  C 
BRANCH 19 20
ATOM     20  NE  ARG G   2      21.753  37.822  39.558  1.00 80.25 LIG-0.23  N 
ATOM     21  CZ  ARG G   2      22.469  36.950  38.841  1.00 82.01 LIG 0.67  C 
ATOM     22  NH1 ARG G   2      22.376  35.634  39.044  1.00 81.47 LIG-0.23  N 
ATOM     23  NH2 ARG G   2      23.300  37.402  37.906  1.00 84.93 LIG-0.23  N 
ATOM     24 1HH1 ARG G   2      21.846  35.328  39.648  1.00 81.47 LIG 0.17  HD
ATOM     25 2HH1 ARG G   2      22.847  35.091  38.570  1.00 81.47 LIG 0.17  HD
ATOM     26 2HH2 ARG G   2      23.765  36.849  37.439  1.00 84.93 LIG 0.17  HD
ATOM     27 1HH2 ARG G   2      23.373  38.248  37.767  1.00 84.93 LIG 0.17  HD
ATOM     28 HE   ARG G   2      21.859  38.657  39.381  1.00 80.25 LIG 0.18  HD
ENDBRANCH 19 20
ENDBRANCH 18 19
ENDBRANCH 17 18
ENDBRANCH 6 17
ENDBRANCH 3 6
ENDBRANCH 1 2
BRANCH 1 29
ATOM     29  CB  THR G   3      13.351  36.265  41.950  1.00 68.23 LIG 0.15  C 
ATOM     30  CG2 THR G   3      14.205  35.011  41.956  1.00 68.63 LIG 0.04  C 
BRANCH 29 31
ATOM     31 OG1  THR G   3      12.505  36.273  43.107  1.00 67.51 LIG-0.39  OA
ATOM     32 HG1  THR G   3      11.875  36.815  42.990  1.00 67.51 LIG 0.21  HD
ENDBRANCH 29 31
ENDBRANCH 1 29
BRANCH 1 33
ATOM     33  C   THR G   3      14.030  38.312  43.224  1.00 68.02 LIG 0.24  C 
ATOM     34  N   ALA G   4      12.893  39.000  43.310  1.00 68.86 LIG-0.35  N 
ATOM     35 H    ALA G   4      12.323  39.055  42.668  1.00 68.86 LIG 0.16  HD
ATOM     36 O    THR G   3      14.879  38.292  44.118  1.00 67.54 LIG-0.27  OA
BRANCH 34 37
ATOM     37  CA  ALA G   4      12.502  39.736  44.515  1.00 69.75 LIG 0.17  C 
ATOM     38  CB  ALA G   4      11.071  40.232  44.382  1.00 70.86 LIG 0.04  C 
BRANCH 37 39
ATOM     39  C   ALA G   4      12.661  38.907  45.796  1.00 71.43 LIG 0.24  C 
ATOM     40  N   ALA G   5      13.000  39.571  46.903  1.00 71.85 LIG-0.35  N 
ATOM     41 H    ALA G   5      13.186  40.411  46.914  1.00 71.85 LIG 0.16  HD
ATOM     42 O    ALA G   4      12.475  37.687  45.771  1.00 72.80 LIG-0.27  OA
BRANCH 40 43
ATOM     43  CA  ALA G   5      13.089  38.923  48.216  1.00 72.89 LIG 0.17  C 
ATOM     44  CB  ALA G   5      11.747  38.315  48.601  1.00 72.65 LIG 0.04  C 
BRANCH 43 45
ATOM     45  C   ALA G   5      14.188  37.856  48.258  1.00 72.87 LIG 0.24  C 
ATOM     46  N   THR G   6      14.078  36.913  49.197  1.00 71.86 LIG-0.34  N 
ATOM     47 H    THR G   6      13.440  36.886  49.773  1.00 71.86 LIG 0.16  HD
ATOM     48 O    ALA G   5      15.118  37.895  47.449  1.00 74.40 LIG-0.27  OA
BRANCH 46 49
ATOM     49  CA  THR G   6      15.053  35.817  49.328  1.00 72.17 LIG 0.20  C 
BRANCH 49 50
ATOM     50  CB  THR G   6      14.569  34.710  50.295  1.00 71.29 LIG 0.15  C 
ATOM     51  CG2 THR G   6      15.610  34.441  51.378  1.00 70.64 LIG 0.04  C 
BRANCH 50 52
ATOM     52 OG1  THR G   6      13.332  35.098  50.904  1.00 70.47 LIG-0.39  OA
ATOM     53 HG1  THR G   6      12.703  34.651  50.572  1.00 70.47 LIG 0.21  HD
ENDBRANCH 50 52
ENDBRANCH 49 50
BRANCH 49 54
ATOM     54  C   THR G   6      15.409  35.181  47.977  1.00 73.53 LIG 0.24  C 
ATOM     55  N   ALA G   7      14.402  34.974  47.122  1.00 73.25 LIG-0.35  N 
ATOM     56 H    ALA G   7      13.576  35.101  47.327  1.00 73.25 LIG 0.16  HD
ATOM     57 O    THR G   6      16.578  34.874  47.731  1.00 75.15 LIG-0.27  OA
BRANCH 55 58
ATOM     58  CA  ALA G   7      14.604  34.509  45.742  1.00 74.45 LIG 0.16  C 
ATOM     59  CB  ALA G   7      13.266  34.324  45.042  1.00 73.04 LIG 0.04  C 
BRANCH 58 60
ATOM     60  C   ALA G   7      15.475  35.494  44.962  1.00 76.13 LIG 0.22  C 
ATOM     61 O    ALA G   7      16.352  35.096  44.194  1.00 77.97 LIG-0.29  OA
ENDBRANCH 58 60
ENDBRANCH 55 58
ENDBRANCH 49 54
ENDBRANCH 46 49
ENDBRANCH 43 45
ENDBRANCH 40 43
ENDBRANCH 37 39
ENDBRANCH 34 37
ENDBRANCH 1 33
TORSDOF 22
ENDMDL
MODEL 6
USER: ADFR SOLUTION from run 4
USER: SCORE 14.501629 LL:  -3.883 LR: -15.998 RR:   0.000 FEB:  -9.435
USER: RMSD 3.175902
USER: SEED 363854
USER: STATUS searching
USER: GENES 24
USER: genes 0 Translation |==|  0.32761 0.48576 0.45081
USER: genes 1 Rotation |==|  0.49688 0.55410 0.57110 0.99194
USER: genes 2 Torsion [CB]-CA--N-[C] |==|  0.25247
USER: genes 3 Torsion [N]-C--CA-[N] |==|  0.51666
USER: genes 4 Torsion [C]-CA--N-[C] |==|  0.75369
USER: genes 5 Torsion [N]-C--CA-[N] |==|  0.27527
USER: genes 6 Torsion [C]-CA--N-[H1] |==|  0.70176
USER: genes 7 Torsion [C]-CA--CB-[CG] |==|  0.49559
USER: genes 8 Torsion [CA]-CB--CG-[CD] |==|  0.41613
USER: genes 9 Torsion [CB]-CG--CD-[NE] |==|  0.57304
USER: genes 10 Torsion [CG]-CD--NE-[CZ] |==|  0.46369
USER: genes 11 Torsion [N]-CA--CB-[OG1] |==|  0.54746
USER: genes 12 Torsion [CA]-CB--OG1-[HG1] |==|  0.79537
USER: genes 13 Torsion [N]-CA--C-[N] |==|  0.40874
USER: genes 14 Torsion [C]-N--CA-[CB] |==|  0.45794
USER: genes 15 Torsion [N]-CA--C-[N] |==|  0.99808
USER: genes 16 Torsion [C]-N--CA-[CB] |==|  0.56404
USER: genes 17 Torsion [N]-CA--C-[N] |==|  0.87179
USER: genes 18 Torsion [C]-N--CA-[CB] |==|  0.38580
USER: genes 19 Torsion [N]-CA--CB-[CG2] |==|  0.71973
USER: genes 20 Torsion [CA]-CB--OG1-[HG1] |==|  0.86536
USER: genes 21 Torsion [N]-CA--C-[N] |==|  0.90112
USER: genes 22 Torsion [C]-N--CA-[C] |==|  0.73572
USER: genes 23 Torsion [N]-CA--C-[O] |==|  0.61730
ROOT
ATOM      1  CA  THR G   3      14.259  37.898  42.167  1.00 68.23 LIG 0.20  C 
ENDROOT
BRANCH 1 2
ATOM      2  N   THR G   3      15.663  37.955  41.772  1.00 68.42 LIG-0.34  N 
ATOM      3  C   ARG G   2      16.093  37.619  40.558  1.00 70.38 LIG 0.24  C 
ATOM      4 O    ARG G   2      15.369  37.125  39.686  1.00 69.46 LIG-0.27  OA
ATOM      5 H    THR G   3      16.187  38.226  42.398  1.00 68.42 LIG 0.16  HD
BRANCH 3 6
ATOM      6  CA  ARG G   2      17.577  37.853  40.297  1.00 72.62 LIG 0.18  C 
BRANCH 6 7
ATOM      7  N   ARG G   2      17.866  37.575  38.893  1.00 74.86 LIG-0.35  N 
ATOM      8  C   ALA G   1      18.195  36.358  38.464  1.00 76.29 LIG 0.25  C 
ATOM      9 O    ALA G   1      18.456  35.416  39.219  1.00 75.70 LIG-0.27  OA
ATOM     10 H    ARG G   2      17.803  38.261  38.377  1.00 74.86 LIG 0.16  HD
BRANCH 8 11
ATOM     11  CA  ALA G   1      18.250  36.175  36.956  1.00 78.97 LIG 0.27  C 
ATOM     12  CB  ALA G   1      17.626  34.837  36.574  1.00 79.33 LIG 0.05  C 
BRANCH 11 13
ATOM     13  N   ALA G   1      19.654  36.259  36.469  1.00 81.42 LIG-0.07  N 
ATOM     14 H3   ALA G   1      19.819  35.581  35.915  1.00 81.42 LIG 0.28  HD
ATOM     15 H2   ALA G   1      20.212  36.218  37.162  1.00 81.42 LIG 0.28  HD
ATOM     16 H1   ALA G   1      19.774  37.029  36.038  1.00 81.42 LIG 0.28  HD
ENDBRANCH 11 13
ENDBRANCH 8 11
ENDBRANCH 6 7
BRANCH 6 17
ATOM     17  CB  ARG G   2      17.977  39.286  40.664  1.00 73.45 LIG 0.04  C 
BRANCH 17 18
ATOM     18  CG  ARG G   2      19.456  39.564  40.459  1.00 75.79 LIG 0.02  C 
BRANCH 18 19
ATOM     19  CD  ARG G   2      19.728  41.018  40.104  1.00 77.52 LIG 0.14  C 
BRANCH 19 20
ATOM     20  NE  ARG G   2      20.966  41.156  39.333  1.00 80.25 LIG-0.23  N 
ATOM     21  CZ  ARG G   2      21.350  42.249  38.666  1.00 82.01 LIG 0.67  C 
ATOM     22  NH1 ARG G   2      20.603  43.356  38.647  1.00 81.47 LIG-0.23  N 
ATOM     23  NH2 ARG G   2      22.502  42.236  38.001  1.00 84.93 LIG-0.23  N 
ATOM     24 1HH1 ARG G   2      19.854  43.376  39.069  1.00 81.47 LIG 0.17  HD
ATOM     25 2HH1 ARG G   2      20.870  44.048  38.212  1.00 81.47 LIG 0.17  HD
ATOM     26 2HH2 ARG G   2      22.758  42.935  37.570  1.00 84.93 LIG 0.17  HD
ATOM     27 1HH2 ARG G   2      22.992  41.529  38.002  1.00 84.93 LIG 0.17  HD
ATOM     28 HE   ARG G   2      21.490  40.474  39.306  1.00 80.25 LIG 0.18  HD
ENDBRANCH 19 20
ENDBRANCH 18 19
ENDBRANCH 17 18
ENDBRANCH 6 17
ENDBRANCH 3 6
ENDBRANCH 1 2
BRANCH 1 29
ATOM     29  CB  THR G   3      13.888  36.527  42.782  1.00 68.23 LIG 0.15  C 
ATOM     30  CG2 THR G   3      14.418  36.412  44.199  1.00 68.63 LIG 0.04  C 
BRANCH 29 31
ATOM     31 OG1  THR G   3      12.465  36.359  42.789  1.00 67.51 LIG-0.39  OA
ATOM     32 HG1  THR G   3      12.128  36.845  43.385  1.00 67.51 LIG 0.21  HD
ENDBRANCH 29 31
ENDBRANCH 1 29
BRANCH 1 33
ATOM     33  C   THR G   3      13.947  39.001  43.172  1.00 68.02 LIG 0.24  C 
ATOM     34  N   ALA G   4      12.718  39.509  43.110  1.00 68.86 LIG-0.35  N 
ATOM     35 H    ALA G   4      12.139  39.279  42.517  1.00 68.86 LIG 0.16  HD
ATOM     36 O    THR G   3      14.799  39.382  43.978  1.00 67.54 LIG-0.27  OA
BRANCH 34 37
ATOM     37  CA  ALA G   4      12.230  40.518  44.055  1.00 69.75 LIG 0.17  C 
ATOM     38  CB  ALA G   4      10.962  41.164  43.521  1.00 70.86 LIG 0.04  C 
BRANCH 37 39
ATOM     39  C   ALA G   4      11.986  39.948  45.459  1.00 71.43 LIG 0.24  C 
ATOM     40  N   ALA G   5      12.227  38.647  45.629  1.00 71.85 LIG-0.35  N 
ATOM     41 H    ALA G   5      12.450  38.118  44.989  1.00 71.85 LIG 0.16  HD
ATOM     42 O    ALA G   4      11.587  40.685  46.366  1.00 72.80 LIG-0.27  OA
BRANCH 40 43
ATOM     43  CA  ALA G   5      12.133  37.992  46.939  1.00 72.89 LIG 0.17  C 
ATOM     44  CB  ALA G   5      12.973  36.722  46.961  1.00 72.65 LIG 0.04  C 
BRANCH 43 45
ATOM     45  C   ALA G   5      12.549  38.926  48.081  1.00 72.87 LIG 0.24  C 
ATOM     46  N   THR G   6      13.674  39.625  47.908  1.00 71.86 LIG-0.34  N 
ATOM     47 H    THR G   6      14.170  39.566  47.208  1.00 71.86 LIG 0.16  HD
ATOM     48 O    ALA G   5      11.857  39.005  49.097  1.00 74.40 LIG-0.27  OA
BRANCH 46 49
ATOM     49  CA  THR G   6      14.170  40.576  48.918  1.00 72.17 LIG 0.20  C 
BRANCH 49 50
ATOM     50  CB  THR G   6      15.704  40.495  49.100  1.00 71.29 LIG 0.15  C 
ATOM     51  CG2 THR G   6      16.062  39.691  50.347  1.00 70.64 LIG 0.04  C 
BRANCH 50 52
ATOM     52 OG1  THR G   6      16.302  39.888  47.948  1.00 70.47 LIG-0.39  OA
ATOM     53 HG1  THR G   6      15.887  39.183  47.755  1.00 70.47 LIG 0.21  HD
ENDBRANCH 50 52
ENDBRANCH 49 50
BRANCH 49 54
ATOM     54  C   THR G   6      13.779  42.027  48.602  1.00 73.53 LIG 0.24  C 
ATOM     55  N   ALA G   7      13.756  42.380  47.313  1.00 73.25 LIG-0.35  N 
ATOM     56 H    ALA G   7      14.026  41.866  46.678  1.00 73.25 LIG 0.16  HD
ATOM     57 O    THR G   6      13.519  42.807  49.521  1.00 75.15 LIG-0.27  OA
BRANCH 55 58
ATOM     58  CA  ALA G   7      13.265  43.685  46.847  1.00 74.45 LIG 0.16  C 
ATOM     59  CB  ALA G   7      14.109  44.187  45.684  1.00 73.04 LIG 0.04  C 
BRANCH 58 60
ATOM     60  C   ALA G   7      11.797  43.593  46.432  1.00 76.13 LIG 0.22  C 
ATOM     61 O    ALA G   7      11.389  44.152  45.413  1.00 77.97 LIG-0.29  OA
ENDBRANCH 58 60
ENDBRANCH 55 58
ENDBRANCH 49 54
ENDBRANCH 46 49
ENDBRANCH 43 45
ENDBRANCH 40 43
ENDBRANCH 37 39
ENDBRANCH 34 37
ENDBRANCH 1 33
TORSDOF 22
ENDMDL
MODEL 7
USER: ADFR SOLUTION from run 18
USER: SCORE 14.341080 LL:  -3.572 LR: -15.856 RR:   0.000 FEB:  -9.293
USER: RMSD 4.323906
USER: SEED 17
USER: STATUS no improvement in best in 8 clusters for 5 generations
USER: GENES 24
USER: genes 0 Translation |==|  0.32764 0.50238 0.45305
USER: genes 1 Rotation |==|  0.50706 0.53680 0.57147 0.99345
USER: genes 2 Torsion [CB]-CA--N-[C] |==|  0.24330
USER: genes 3 Torsion [N]-C--CA-[N] |==|  0.51085
USER: genes 4 Torsion [C]-CA--N-[C] |==|  0.77545
USER: genes 5 Torsion [N]-C--CA-[N] |==|  0.23403
USER: genes 6 Torsion [C]-CA--N-[H1] |==|  0.57971
USER: genes 7 Torsion [C]-CA--CB-[CG] |==|  0.62861
USER: genes 8 Torsion [CA]-CB--CG-[CD] |==|  0.64360
USER: genes 9 Torsion [CB]-CG--CD-[NE] |==|  0.44224
USER: genes 10 Torsion [CG]-CD--NE-[CZ] |==|  0.26518
USER: genes 11 Torsion [N]-CA--CB-[OG1] |==|  0.53733
USER: genes 12 Torsion [CA]-CB--OG1-[HG1] |==|  0.65121
USER: genes 13 Torsion [N]-CA--C-[N] |==|  0.43684
USER: genes 14 Torsion [C]-N--CA-[CB] |==|  0.47777
USER: genes 15 Torsion [N]-CA--C-[N] |==|  0.95679
USER: genes 16 Torsion [C]-N--CA-[CB] |==|  0.31595
USER: genes 17 Torsion [N]-CA--C-[N] |==|  0.74821
USER: genes 18 Torsion [C]-N--CA-[CB] |==|  0.20013
USER: genes 19 Torsion [N]-CA--CB-[CG2] |==|  0.70727
USER: genes 20 Torsion [CA]-CB--OG1-[HG1] |==|  0.56516
USER: genes 21 Torsion [N]-CA--C-[N] |==|  0.00003
USER: genes 22 Torsion [C]-N--CA-[C] |==|  0.18639
USER: genes 23 Torsion [N]-CA--C-[O] |==|  0.27481
ROOT
ATOM      1  CA  THR G   3      14.260  38.197  42.212  1.00 68.23 LIG 0.20  C 
ENDROOT
BRANCH 1 2
ATOM      2  N   THR G   3      15.686  38.267  41.909  1.00 68.42 LIG-0.34  N 
ATOM      3  C   ARG G   2      16.198  37.929  40.728  1.00 70.38 LIG 0.24  C 
ATOM      4 O    ARG G   2      15.537  37.423  39.814  1.00 69.46 LIG-0.27  OA
ATOM      5 H    THR G   3      16.165  38.547  42.567  1.00 68.42 LIG 0.16  HD
BRANCH 3 6
ATOM      6  CA  ARG G   2      17.693  38.177  40.563  1.00 72.62 LIG 0.18  C 
BRANCH 6 7
ATOM      7  N   ARG G   2      18.085  37.847  39.196  1.00 74.86 LIG-0.35  N 
ATOM      8  C   ALA G   1      18.314  36.594  38.808  1.00 76.29 LIG 0.25  C 
ATOM      9 O    ALA G   1      18.390  35.640  39.588  1.00 75.70 LIG-0.27  OA
ATOM     10 H    ARG G   2      18.153  38.527  38.675  1.00 74.86 LIG 0.16  HD
BRANCH 8 11
ATOM     11  CA  ALA G   1      18.496  36.383  37.313  1.00 78.97 LIG 0.27  C 
ATOM     12  CB  ALA G   1      18.094  34.961  36.938  1.00 79.33 LIG 0.05  C 
BRANCH 11 13
ATOM     13  N   ALA G   1      19.905  36.654  36.914  1.00 81.42 LIG-0.07  N 
ATOM     14 H3   ALA G   1      20.385  35.908  36.989  1.00 81.42 LIG 0.28  HD
ATOM     15 H2   ALA G   1      20.248  37.282  37.443  1.00 81.42 LIG 0.28  HD
ATOM     16 H1   ALA G   1      19.926  36.935  36.069  1.00 81.42 LIG 0.28  HD
ENDBRANCH 11 13
ENDBRANCH 8 11
ENDBRANCH 6 7
BRANCH 6 17
ATOM     17  CB  ARG G   2      18.046  39.630  40.897  1.00 73.45 LIG 0.04  C 
BRANCH 17 18
ATOM     18  CG  ARG G   2      18.962  40.274  39.871  1.00 75.79 LIG 0.02  C 
BRANCH 18 19
ATOM     19  CD  ARG G   2      20.185  40.916  40.508  1.00 77.52 LIG 0.14  C 
BRANCH 19 20
ATOM     20  NE  ARG G   2      21.266  41.087  39.534  1.00 80.25 LIG-0.23  N 
ATOM     21  CZ  ARG G   2      21.516  42.200  38.837  1.00 82.01 LIG 0.67  C 
ATOM     22  NH1 ARG G   2      20.768  43.296  38.975  1.00 81.47 LIG-0.23  N 
ATOM     23  NH2 ARG G   2      22.533  42.217  37.979  1.00 84.93 LIG-0.23  N 
ATOM     24 1HH1 ARG G   2      20.105  43.298  39.523  1.00 81.47 LIG 0.17  HD
ATOM     25 2HH1 ARG G   2      20.948  44.001  38.516  1.00 81.47 LIG 0.17  HD
ATOM     26 2HH2 ARG G   2      22.703  42.928  37.526  1.00 84.93 LIG 0.17  HD
ATOM     27 1HH2 ARG G   2      23.022  41.516  37.877  1.00 84.93 LIG 0.17  HD
ATOM     28 HE   ARG G   2      21.784  40.413  39.399  1.00 80.25 LIG 0.18  HD
ENDBRANCH 19 20
ENDBRANCH 18 19
ENDBRANCH 17 18
ENDBRANCH 6 17
ENDBRANCH 3 6
ENDBRANCH 1 2
BRANCH 1 29
ATOM     29  CB  THR G   3      13.848  36.800  42.733  1.00 68.23 LIG 0.15  C 
ATOM     30  CG2 THR G   3      14.365  36.576  44.142  1.00 68.63 LIG 0.04  C 
BRANCH 29 31
ATOM     31 OG1  THR G   3      12.421  36.669  42.722  1.00 67.51 LIG-0.39  OA
ATOM     32 HG1  THR G   3      12.154  36.447  43.486  1.00 67.51 LIG 0.21  HD
ENDBRANCH 29 31
ENDBRANCH 1 29
BRANCH 1 33
ATOM     33  C   THR G   3      13.887  39.250  43.250  1.00 68.02 LIG 0.24  C 
ATOM     34  N   ALA G   4      12.606  39.614  43.271  1.00 68.86 LIG-0.35  N 
ATOM     35 H    ALA G   4      12.022  39.323  42.711  1.00 68.86 LIG 0.16  HD
ATOM     36 O    THR G   3      14.738  39.721  44.007  1.00 67.54 LIG-0.27  OA
BRANCH 34 37
ATOM     37  CA  ALA G   4      12.066  40.554  44.258  1.00 69.75 LIG 0.17  C 
ATOM     38  CB  ALA G   4      10.634  40.917  43.903  1.00 70.86 LIG 0.04  C 
BRANCH 37 39
ATOM     39  C   ALA G   4      12.138  40.015  45.692  1.00 71.43 LIG 0.24  C 
ATOM     40  N   ALA G   5      12.358  38.706  45.832  1.00 71.85 LIG-0.35  N 
ATOM     41 H    ALA G   5      12.401  38.159  45.170  1.00 71.85 LIG 0.16  HD
ATOM     42 O    ALA G   4      11.998  40.782  46.650  1.00 72.80 LIG-0.27  OA
BRANCH 40 43
ATOM     43  CA  ALA G   5      12.550  38.074  47.142  1.00 72.89 LIG 0.17  C 
ATOM     44  CB  ALA G   5      11.398  37.127  47.451  1.00 72.65 LIG 0.04  C 
BRANCH 43 45
ATOM     45  C   ALA G   5      13.888  37.332  47.233  1.00 72.87 LIG 0.24  C 
ATOM     46  N   THR G   6      13.888  36.044  46.879  1.00 71.86 LIG-0.34  N 
ATOM     47 H    THR G   6      13.185  35.620  46.623  1.00 71.86 LIG 0.16  HD
ATOM     48 O    ALA G   5      14.898  37.924  47.618  1.00 74.40 LIG-0.27  OA
BRANCH 46 49
ATOM     49  CA  THR G   6      15.112  35.224  46.897  1.00 72.17 LIG 0.20  C 
BRANCH 49 50
ATOM     50  CB  THR G   6      15.577  34.891  48.334  1.00 71.29 LIG 0.15  C 
ATOM     51  CG2 THR G   6      16.798  35.723  48.717  1.00 70.64 LIG 0.04  C 
BRANCH 50 52
ATOM     52 OG1  THR G   6      14.515  35.141  49.263  1.00 70.47 LIG-0.39  OA
ATOM     53 HG1  THR G   6      14.837  35.273  50.027  1.00 70.47 LIG 0.21  HD
ENDBRANCH 50 52
ENDBRANCH 49 50
BRANCH 49 54
ATOM     54  C   THR G   6      14.957  33.918  46.105  1.00 73.53 LIG 0.24  C 
ATOM     55  N   ALA G   7      13.774  33.701  45.522  1.00 73.25 LIG-0.35  N 
ATOM     56 H    ALA G   7      13.090  34.208  45.642  1.00 73.25 LIG 0.16  HD
ATOM     57 O    THR G   6      15.898  33.122  46.043  1.00 75.15 LIG-0.27  OA
BRANCH 55 58
ATOM     58  CA  ALA G   7      13.521  32.571  44.617  1.00 74.45 LIG 0.16  C 
ATOM     59  CB  ALA G   7      14.527  32.569  43.474  1.00 73.04 LIG 0.04  C 
BRANCH 58 60
ATOM     60  C   ALA G   7      13.584  31.246  45.376  1.00 76.13 LIG 0.22  C 
ATOM     61 O    ALA G   7      12.557  30.681  45.755  1.00 77.97 LIG-0.29  OA
ENDBRANCH 58 60
ENDBRANCH 55 58
ENDBRANCH 49 54
ENDBRANCH 46 49
ENDBRANCH 43 45
ENDBRANCH 40 43
ENDBRANCH 37 39
ENDBRANCH 34 37
ENDBRANCH 1 33
TORSDOF 22
ENDMDL
MODEL 8
USER: ADFR SOLUTION from run 79
USER: SCORE 17.496089 LL:  -3.851 LR: -15.840 RR:   0.000 FEB:  -9.278
USER: RMSD 3.890856
USER: SEED 78
USER: STATUS searching
USER: GENES 24
USER: genes 0 Translation |==|  0.31957 0.47373 0.45257
USER: genes 1 Rotation |==|  0.58459 0.54128 0.55190 0.98831
USER: genes 2 Torsion [CB]-CA--N-[C] |==|  0.20864
USER: genes 3 Torsion [N]-C--CA-[N] |==|  0.51480
USER: genes 4 Torsion [C]-CA--N-[C] |==|  0.72525
USER: genes 5 Torsion [N]-C--CA-[N] |==|  0.30189
USER: genes 6 Torsion [C]-CA--N-[H1] |==|  0.36500
USER: genes 7 Torsion [C]-CA--CB-[CG] |==|  0.49024
USER: genes 8 Torsion [CA]-CB--CG-[CD] |==|  0.95438
USER: genes 9 Torsion [CB]-CG--CD-[NE] |==|  0.39246
USER: genes 10 Torsion [CG]-CD--NE-[CZ] |==|  0.55467
USER: genes 11 Torsion [N]-CA--CB-[OG1] |==|  0.53139
USER: genes 12 Torsion [CA]-CB--OG1-[HG1] |==|  0.74427
USER: genes 13 Torsion [N]-CA--C-[N] |==|  0.59910
USER: genes 14 Torsion [C]-N--CA-[CB] |==|  0.83889
USER: genes 15 Torsion [N]-CA--C-[N] |==|  0.00291
USER: genes 16 Torsion [C]-N--CA-[CB] |==|  0.81616
USER: genes 17 Torsion [N]-CA--C-[N] |==|  0.02069
USER: genes 18 Torsion [C]-N--CA-[CB] |==|  0.17430
USER: genes 19 Torsion [N]-CA--CB-[CG2] |==|  0.70853
USER: genes 20 Torsion [CA]-CB--OG1-[HG1] |==|  0.08029
USER: genes 21 Torsion [N]-CA--C-[N] |==|  0.06575
USER: genes 22 Torsion [C]-N--CA-[C] |==|  0.56858
USER: genes 23 Torsion [N]-CA--C-[O] |==|  0.99269
ROOT
ATOM      1  CA  THR G   3      14.078  37.681  42.203  1.00 68.23 LIG 0.20  C 
ENDROOT
BRANCH 1 2
ATOM      2  N   THR G   3      15.487  37.715  41.823  1.00 68.42 LIG-0.34  N 
ATOM      3  C   ARG G   2      15.915  37.461  40.588  1.00 70.38 LIG 0.24  C 
ATOM      4 O    ARG G   2      15.181  37.068  39.675  1.00 69.46 LIG-0.27  OA
ATOM      5 H    THR G   3      16.015  37.914  42.472  1.00 68.42 LIG 0.16  HD
BRANCH 3 6
ATOM      6  CA  ARG G   2      17.410  37.657  40.357  1.00 72.62 LIG 0.18  C 
BRANCH 6 7
ATOM      7  N   ARG G   2      17.704  37.466  38.939  1.00 74.86 LIG-0.35  N 
ATOM      8  C   ALA G   1      18.185  36.320  38.464  1.00 76.29 LIG 0.25  C 
ATOM      9 O    ALA G   1      18.587  35.398  39.181  1.00 75.70 LIG-0.27  OA
ATOM     10 H    ARG G   2      17.538  38.153  38.449  1.00 74.86 LIG 0.16  HD
BRANCH 8 11
ATOM     11  CA  ALA G   1      18.232  36.194  36.949  1.00 78.97 LIG 0.27  C 
ATOM     12  CB  ALA G   1      17.568  34.892  36.517  1.00 79.33 LIG 0.05  C 
BRANCH 11 13
ATOM     13  N   ALA G   1      19.638  36.254  36.462  1.00 81.42 LIG-0.07  N 
ATOM     14 H3   ALA G   1      20.196  36.187  37.153  1.00 81.42 LIG 0.28  HD
ATOM     15 H2   ALA G   1      19.775  37.029  36.046  1.00 81.42 LIG 0.28  HD
ATOM     16 H1   ALA G   1      19.786  35.584  35.896  1.00 81.42 LIG 0.28  HD
ENDBRANCH 11 13
ENDBRANCH 8 11
ENDBRANCH 6 7
BRANCH 6 17
ATOM     17  CB  ARG G   2      17.858  39.045  40.825  1.00 73.45 LIG 0.04  C 
BRANCH 17 18
ATOM     18  CG  ARG G   2      19.355  39.265  40.697  1.00 75.79 LIG 0.02  C 
BRANCH 18 19
ATOM     19  CD  ARG G   2      20.119  37.962  40.518  1.00 77.52 LIG 0.14  C 
BRANCH 19 20
ATOM     20  NE  ARG G   2      21.219  38.116  39.563  1.00 80.25 LIG-0.23  N 
ATOM     21  CZ  ARG G   2      21.831  37.120  38.914  1.00 82.01 LIG 0.67  C 
ATOM     22  NH1 ARG G   2      21.475  35.846  39.092  1.00 81.47 LIG-0.23  N 
ATOM     23  NH2 ARG G   2      22.823  37.402  38.073  1.00 84.93 LIG-0.23  N 
ATOM     24 1HH1 ARG G   2      20.838  35.649  39.635  1.00 81.47 LIG 0.17  HD
ATOM     25 2HH1 ARG G   2      21.883  35.222  38.663  1.00 81.47 LIG 0.17  HD
ATOM     26 2HH2 ARG G   2      23.222  36.768  37.651  1.00 84.93 LIG 0.17  HD
ATOM     27 1HH2 ARG G   2      23.065  38.219  37.952  1.00 84.93 LIG 0.17  HD
ATOM     28 HE   ARG G   2      21.495  38.916  39.406  1.00 80.25 LIG 0.18  HD
ENDBRANCH 19 20
ENDBRANCH 18 19
ENDBRANCH 17 18
ENDBRANCH 6 17
ENDBRANCH 3 6
ENDBRANCH 1 2
BRANCH 1 29
ATOM     29  CB  THR G   3      13.548  36.233  42.325  1.00 68.23 LIG 0.15  C 
ATOM     30  CG2 THR G   3      14.148  35.540  43.534  1.00 68.63 LIG 0.04  C 
BRANCH 29 31
ATOM     31 OG1  THR G   3      12.119  36.238  42.437  1.00 67.51 LIG-0.39  OA
ATOM     32 HG1  THR G   3      11.903  36.255  43.249  1.00 67.51 LIG 0.21  HD
ENDBRANCH 29 31
ENDBRANCH 1 29
BRANCH 1 33
ATOM     33  C   THR G   3      13.870  38.406  43.528  1.00 68.02 LIG 0.24  C 
ATOM     34  N   ALA G   4      12.945  37.887  44.333  1.00 68.86 LIG-0.35  N 
ATOM     35 H    ALA G   4      12.451  37.217  44.117  1.00 68.86 LIG 0.16  HD
ATOM     36 O    THR G   3      14.528  39.410  43.809  1.00 67.54 LIG-0.27  OA
BRANCH 34 37
ATOM     37  CA  ALA G   4      12.678  38.413  45.674  1.00 69.75 LIG 0.17  C 
ATOM     38  CB  ALA G   4      13.944  38.369  46.513  1.00 70.86 LIG 0.04  C 
BRANCH 37 39
ATOM     39  C   ALA G   4      12.103  39.835  45.652  1.00 71.43 LIG 0.24  C 
ATOM     40  N   ALA G   5      11.907  40.385  44.451  1.00 71.85 LIG-0.35  N 
ATOM     41 H    ALA G   5      12.137  40.008  43.714  1.00 71.85 LIG 0.16  HD
ATOM     42 O    ALA G   4      11.844  40.416  46.710  1.00 72.80 LIG-0.27  OA
BRANCH 40 43
ATOM     43  CA  ALA G   5      11.272  41.696  44.278  1.00 72.89 LIG 0.17  C 
ATOM     44  CB  ALA G   5       9.814  41.644  44.715  1.00 72.65 LIG 0.04  C 
BRANCH 43 45
ATOM     45  C   ALA G   5      12.016  42.800  45.037  1.00 72.87 LIG 0.24  C 
ATOM     46  N   THR G   6      13.181  42.466  45.599  1.00 71.86 LIG-0.34  N 
ATOM     47 H    THR G   6      13.516  41.675  45.567  1.00 71.86 LIG 0.16  HD
ATOM     48 O    ALA G   5      11.535  43.933  45.107  1.00 74.40 LIG-0.27  OA
BRANCH 46 49
ATOM     49  CA  THR G   6      14.006  43.440  46.334  1.00 72.17 LIG 0.20  C 
BRANCH 49 50
ATOM     50  CB  THR G   6      13.287  43.996  47.585  1.00 71.29 LIG 0.15  C 
ATOM     51  CG2 THR G   6      12.797  45.421  47.343  1.00 70.64 LIG 0.04  C 
BRANCH 50 52
ATOM     52 OG1  THR G   6      12.176  43.158  47.924  1.00 70.47 LIG-0.39  OA
ATOM     53 HG1  THR G   6      12.333  42.370  47.678  1.00 70.47 LIG 0.21  HD
ENDBRANCH 50 52
ENDBRANCH 49 50
BRANCH 49 54
ATOM     54  C   THR G   6      15.365  42.862  46.753  1.00 73.53 LIG 0.24  C 
ATOM     55  N   ALA G   7      15.830  41.832  46.040  1.00 73.25 LIG-0.35  N 
ATOM     56 H    ALA G   7      15.372  41.437  45.427  1.00 73.25 LIG 0.16  HD
ATOM     57 O    THR G   6      15.965  43.341  47.718  1.00 75.15 LIG-0.27  OA
BRANCH 55 58
ATOM     58  CA  ALA G   7      17.174  41.266  46.228  1.00 74.45 LIG 0.16  C 
ATOM     59  CB  ALA G   7      17.181  40.290  47.395  1.00 73.04 LIG 0.04  C 
BRANCH 58 60
ATOM     60  C   ALA G   7      17.650  40.569  44.954  1.00 76.13 LIG 0.22  C 
ATOM     61 O    ALA G   7      16.921  40.489  43.964  1.00 77.97 LIG-0.29  OA
ENDBRANCH 58 60
ENDBRANCH 55 58
ENDBRANCH 49 54
ENDBRANCH 46 49
ENDBRANCH 43 45
ENDBRANCH 40 43
ENDBRANCH 37 39
ENDBRANCH 34 37
ENDBRANCH 1 33
TORSDOF 22
ENDMDL
MODEL 9
USER: ADFR SOLUTION from run 77
USER: SCORE 15.397845 LL:  -3.335 LR: -15.794 RR:   0.000 FEB:  -9.231
USER: RMSD 3.868502
USER: SEED 76
USER: STATUS no improvement in best in 23 clusters for 5 generations
USER: GENES 24
USER: genes 0 Translation |==|  0.32741 0.46086 0.45065
USER: genes 1 Rotation |==|  0.54709 0.54792 0.56560 0.99110
USER: genes 2 Torsion [CB]-CA--N-[C] |==|  0.25221
USER: genes 3 Torsion [N]-C--CA-[N] |==|  0.49394
USER: genes 4 Torsion [C]-CA--N-[C] |==|  0.75842
USER: genes 5 Torsion [N]-C--CA-[N] |==|  0.27337
USER: genes 6 Torsion [C]-CA--N-[H1] |==|  0.72298
USER: genes 7 Torsion [C]-CA--CB-[CG] |==|  0.51739
USER: genes 8 Torsion [CA]-CB--CG-[CD] |==|  0.90546
USER: genes 9 Torsion [CB]-CG--CD-[NE] |==|  0.40875
USER: genes 10 Torsion [CG]-CD--NE-[CZ] |==|  0.59462
USER: genes 11 Torsion [N]-CA--CB-[OG1] |==|  0.00521
USER: genes 12 Torsion [CA]-CB--OG1-[HG1] |==|  0.53021
USER: genes 13 Torsion [N]-CA--C-[N] |==|  0.36841
USER: genes 14 Torsion [C]-N--CA-[CB] |==|  0.56141
USER: genes 15 Torsion [N]-CA--C-[N] |==|  0.86793
USER: genes 16 Torsion [C]-N--CA-[CB] |==|  0.82992
USER: genes 17 Torsion [N]-CA--C-[N] |==|  0.44690
USER: genes 18 Torsion [C]-N--CA-[CB] |==|  0.51667
USER: genes 19 Torsion [N]-CA--CB-[CG2] |==|  0.71712
USER: genes 20 Torsion [CA]-CB--OG1-[HG1] |==|  0.80442
USER: genes 21 Torsion [N]-CA--C-[N] |==|  0.90397
USER: genes 22 Torsion [C]-N--CA-[C] |==|  0.72877
USER: genes 23 Torsion [N]-CA--C-[O] |==|  0.08446
ROOT
ATOM      1  CA  THR G   3      14.255  37.449  42.164  1.00 68.23 LIG 0.20  C 
ENDROOT
BRANCH 1 2
ATOM      2  N   THR G   3      15.660  37.525  41.775  1.00 68.42 LIG-0.34  N 
ATOM      3  C   ARG G   2      16.074  37.416  40.516  1.00 70.38 LIG 0.24  C 
ATOM      4 O    ARG G   2      15.330  37.133  39.570  1.00 69.46 LIG-0.27  OA
ATOM      5 H    THR G   3      16.194  37.646  42.438  1.00 68.42 LIG 0.16  HD
BRANCH 3 6
ATOM      6  CA  ARG G   2      17.567  37.634  40.293  1.00 72.62 LIG 0.18  C 
BRANCH 6 7
ATOM      7  N   ARG G   2      17.875  37.432  38.880  1.00 74.86 LIG-0.35  N 
ATOM      8  C   ALA G   1      18.156  36.231  38.380  1.00 76.29 LIG 0.25  C 
ATOM      9 O    ALA G   1      18.354  35.231  39.078  1.00 75.70 LIG-0.27  OA
ATOM     10 H    ARG G   2      17.857  38.152  38.409  1.00 74.86 LIG 0.16  HD
BRANCH 8 11
ATOM     11  CA  ALA G   1      18.236  36.141  36.865  1.00 78.97 LIG 0.27  C 
ATOM     12  CB  ALA G   1      17.574  34.855  36.386  1.00 79.33 LIG 0.05  C 
BRANCH 11 13
ATOM     13  N   ALA G   1      19.654  36.204  36.411  1.00 81.42 LIG-0.07  N 
ATOM     14 H3   ALA G   1      19.777  35.631  35.741  1.00 81.42 LIG 0.28  HD
ATOM     15 H2   ALA G   1      20.191  35.989  37.087  1.00 81.42 LIG 0.28  HD
ATOM     16 H1   ALA G   1      19.841  37.029  36.135  1.00 81.42 LIG 0.28  HD
ENDBRANCH 11 13
ENDBRANCH 8 11
ENDBRANCH 6 7
BRANCH 6 17
ATOM     17  CB  ARG G   2      17.988  39.035  40.749  1.00 73.45 LIG 0.04  C 
BRANCH 17 18
ATOM     18  CG  ARG G   2      19.432  39.364  40.412  1.00 75.79 LIG 0.02  C 
BRANCH 18 19
ATOM     19  CD  ARG G   2      20.337  38.145  40.490  1.00 77.52 LIG 0.14  C 
BRANCH 19 20
ATOM     20  NE  ARG G   2      21.419  38.221  39.504  1.00 80.25 LIG-0.23  N 
ATOM     21  CZ  ARG G   2      21.959  37.182  38.859  1.00 82.01 LIG 0.67  C 
ATOM     22  NH1 ARG G   2      21.539  35.932  39.071  1.00 81.47 LIG-0.23  N 
ATOM     23  NH2 ARG G   2      22.943  37.394  37.989  1.00 84.93 LIG-0.23  N 
ATOM     24 1HH1 ARG G   2      20.907  35.780  39.634  1.00 81.47 LIG 0.17  HD
ATOM     25 2HH1 ARG G   2      21.901  35.279  38.644  1.00 81.47 LIG 0.17  HD
ATOM     26 2HH2 ARG G   2      23.296  36.732  37.569  1.00 84.93 LIG 0.17  HD
ATOM     27 1HH2 ARG G   2      23.225  38.193  37.846  1.00 84.93 LIG 0.17  HD
ATOM     28 HE   ARG G   2      21.734  39.001  39.325  1.00 80.25 LIG 0.18  HD
ENDBRANCH 19 20
ENDBRANCH 18 19
ENDBRANCH 17 18
ENDBRANCH 6 17
ENDBRANCH 3 6
ENDBRANCH 1 2
BRANCH 1 29
ATOM     29  CB  THR G   3      13.825  36.002  42.499  1.00 68.23 LIG 0.15  C 
ATOM     30  CG2 THR G   3      12.714  35.541  41.573  1.00 68.63 LIG 0.04  C 
BRANCH 29 31
ATOM     31 OG1  THR G   3      14.945  35.114  42.379  1.00 67.51 LIG-0.39  OA
ATOM     32 HG1  THR G   3      14.677  34.319  42.416  1.00 67.51 LIG 0.21  HD
ENDBRANCH 29 31
ENDBRANCH 1 29
BRANCH 1 33
ATOM     33  C   THR G   3      13.990  38.344  43.370  1.00 68.02 LIG 0.24  C 
ATOM     34  N   ALA G   4      12.923  39.136  43.280  1.00 68.86 LIG-0.35  N 
ATOM     35 H    ALA G   4      12.431  39.190  42.577  1.00 68.86 LIG 0.16  HD
ATOM     36 O    THR G   3      14.736  38.319  44.351  1.00 67.54 LIG-0.27  OA
BRANCH 34 37
ATOM     37  CA  ALA G   4      12.482  39.997  44.381  1.00 69.75 LIG 0.17  C 
ATOM     38  CB  ALA G   4      11.011  40.342  44.216  1.00 70.86 LIG 0.04  C 
BRANCH 37 39
ATOM     39  C   ALA G   4      12.731  39.373  45.761  1.00 71.43 LIG 0.24  C 
ATOM     40  N   ALA G   5      12.351  38.104  45.923  1.00 71.85 LIG-0.35  N 
ATOM     41 H    ALA G   5      11.930  37.654  45.323  1.00 71.85 LIG 0.16  HD
ATOM     42 O    ALA G   4      13.261  40.039  46.655  1.00 72.80 LIG-0.27  OA
BRANCH 40 43
ATOM     43  CA  ALA G   5      12.618  37.352  47.154  1.00 72.89 LIG 0.17  C 
ATOM     44  CB  ALA G   5      14.118  37.242  47.397  1.00 72.65 LIG 0.04  C 
BRANCH 43 45
ATOM     45  C   ALA G   5      11.927  37.977  48.371  1.00 72.87 LIG 0.24  C 
ATOM     46  N   THR G   6      11.767  37.193  49.442  1.00 71.86 LIG-0.34  N 
ATOM     47 H    THR G   6      12.015  36.371  49.472  1.00 71.86 LIG 0.16  HD
ATOM     48 O    ALA G   5      11.548  39.149  48.334  1.00 74.40 LIG-0.27  OA
BRANCH 46 49
ATOM     49  CA  THR G   6      11.141  37.679  50.684  1.00 72.17 LIG 0.20  C 
BRANCH 49 50
ATOM     50  CB  THR G   6      11.204  36.634  51.822  1.00 71.29 LIG 0.15  C 
ATOM     51  CG2 THR G   6       9.861  35.928  51.988  1.00 70.64 LIG 0.04  C 
BRANCH 50 52
ATOM     52 OG1  THR G   6      12.223  35.666  51.543  1.00 70.47 LIG-0.39  OA
ATOM     53 HG1  THR G   6      11.981  35.180  50.902  1.00 70.47 LIG 0.21  HD
ENDBRANCH 50 52
ENDBRANCH 49 50
BRANCH 49 54
ATOM     54  C   THR G   6      11.758  38.995  51.178  1.00 73.53 LIG 0.24  C 
ATOM     55  N   ALA G   7      13.068  39.164  50.971  1.00 73.25 LIG-0.35  N 
ATOM     56 H    ALA G   7      13.579  38.547  50.658  1.00 73.25 LIG 0.16  HD
ATOM     57 O    THR G   6      11.051  39.829  51.748  1.00 75.15 LIG-0.27  OA
BRANCH 55 58
ATOM     58  CA  ALA G   7      13.769  40.424  51.257  1.00 74.45 LIG 0.16  C 
ATOM     59  CB  ALA G   7      15.134  40.146  51.871  1.00 73.04 LIG 0.04  C 
BRANCH 58 60
ATOM     60  C   ALA G   7      13.924  41.256  49.984  1.00 76.13 LIG 0.22  C 
ATOM     61 O    ALA G   7      13.091  41.193  49.078  1.00 77.97 LIG-0.29  OA
ENDBRANCH 58 60
ENDBRANCH 55 58
ENDBRANCH 49 54
ENDBRANCH 46 49
ENDBRANCH 43 45
ENDBRANCH 40 43
ENDBRANCH 37 39
ENDBRANCH 34 37
ENDBRANCH 1 33
TORSDOF 22
ENDMDL
MODEL 10
USER: ADFR SOLUTION from run 14
USER: SCORE 15.054573 LL:  -4.472 LR: -15.755 RR:   0.000 FEB:  -9.193
USER: RMSD 3.554262
USER: SEED 554854
USER: STATUS no improvement in best in 36 clusters for 5 generations
USER: GENES 24
USER: genes 0 Translation |==|  0.32268 0.49154 0.44704
USER: genes 1 Rotation |==|  0.52467 0.52105 0.54958 0.99648
USER: genes 2 Torsion [CB]-CA--N-[C] |==|  0.25252
USER: genes 3 Torsion [N]-C--CA-[N] |==|  0.50543
USER: genes 4 Torsion [C]-CA--N-[C] |==|  0.78234
USER: genes 5 Torsion [N]-C--CA-[N] |==|  0.20129
USER: genes 6 Torsion [C]-CA--N-[H1] |==|  0.53285
USER: genes 7 Torsion [C]-CA--CB-[CG] |==|  0.53438
USER: genes 8 Torsion [CA]-CB--CG-[CD] |==|  0.39758
USER: genes 9 Torsion [CB]-CG--CD-[NE] |==|  0.57013
USER: genes 10 Torsion [CG]-CD--NE-[CZ] |==|  0.44099
USER: genes 11 Torsion [N]-CA--CB-[OG1] |==|  0.34324
USER: genes 12 Torsion [CA]-CB--OG1-[HG1] |==|  0.29179
USER: genes 13 Torsion [N]-CA--C-[N] |==|  0.44555
USER: genes 14 Torsion [C]-N--CA-[CB] |==|  0.50117
USER: genes 15 Torsion [N]-CA--C-[N] |==|  0.92247
USER: genes 16 Torsion [C]-N--CA-[CB] |==|  0.32278
USER: genes 17 Torsion [N]-CA--C-[N] |==|  0.79977
USER: genes 18 Torsion [C]-N--CA-[CB] |==|  0.50556
USER: genes 19 Torsion [N]-CA--CB-[CG2] |==|  0.63924
USER: genes 20 Torsion [CA]-CB--OG1-[HG1] |==|  0.83093
USER: genes 21 Torsion [N]-CA--C-[N] |==|  0.46289
USER: genes 22 Torsion [C]-N--CA-[C] |==|  0.80257
USER: genes 23 Torsion [N]-CA--C-[O] |==|  0.93913
ROOT
ATOM      1  CA  THR G   3      14.148  38.002  42.091  1.00 68.23 LIG 0.20  C 
ENDROOT
BRANCH 1 2
ATOM      2  N   THR G   3      15.589  37.956  41.863  1.00 68.42 LIG-0.34  N 
ATOM      3  C   ARG G   2      16.131  37.716  40.672  1.00 70.38 LIG 0.24  C 
ATOM      4 O    ARG G   2      15.477  37.402  39.670  1.00 69.46 LIG-0.27  OA
ATOM      5 H    THR G   3      16.055  38.098  42.572  1.00 68.42 LIG 0.16  HD
BRANCH 3 6
ATOM      6  CA  ARG G   2      17.652  37.820  40.607  1.00 72.62 LIG 0.18  C 
BRANCH 6 7
ATOM      7  N   ARG G   2      18.090  37.578  39.235  1.00 74.86 LIG-0.35  N 
ATOM      8  C   ALA G   1      18.170  36.352  38.723  1.00 76.29 LIG 0.25  C 
ATOM      9 O    ALA G   1      18.057  35.323  39.395  1.00 75.70 LIG-0.27  OA
ATOM     10 H    ARG G   2      18.288  38.292  38.798  1.00 74.86 LIG 0.16  HD
BRANCH 8 11
ATOM     11  CA  ALA G   1      18.427  36.271  37.226  1.00 78.97 LIG 0.27  C 
ATOM     12  CB  ALA G   1      18.128  34.862  36.726  1.00 79.33 LIG 0.05  C 
BRANCH 11 13
ATOM     13  N   ALA G   1      19.832  36.654  36.915  1.00 81.42 LIG-0.07  N 
ATOM     14 H3   ALA G   1      20.383  36.010  37.187  1.00 81.42 LIG 0.28  HD
ATOM     15 H2   ALA G   1      20.032  37.413  37.334  1.00 81.42 LIG 0.28  HD
ATOM     16 H1   ALA G   1      19.921  36.768  36.036  1.00 81.42 LIG 0.28  HD
ENDBRANCH 11 13
ENDBRANCH 8 11
ENDBRANCH 6 7
BRANCH 6 17
ATOM     17  CB  ARG G   2      18.126  39.192  41.098  1.00 73.45 LIG 0.04  C 
BRANCH 17 18
ATOM     18  CG  ARG G   2      19.585  39.468  40.782  1.00 75.79 LIG 0.02  C 
BRANCH 18 19
ATOM     19  CD  ARG G   2      19.834  40.923  40.416  1.00 77.52 LIG 0.14  C 
BRANCH 19 20
ATOM     20  NE  ARG G   2      21.023  41.066  39.572  1.00 80.25 LIG-0.23  N 
ATOM     21  CZ  ARG G   2      21.288  42.100  38.769  1.00 82.01 LIG 0.67  C 
ATOM     22  NH1 ARG G   2      20.452  43.136  38.663  1.00 81.47 LIG-0.23  N 
ATOM     23  NH2 ARG G   2      22.408  42.099  38.052  1.00 84.93 LIG-0.23  N 
ATOM     24 1HH1 ARG G   2      19.722  43.148  39.117  1.00 81.47 LIG 0.17  HD
ATOM     25 2HH1 ARG G   2      20.643  43.791  38.139  1.00 81.47 LIG 0.17  HD
ATOM     26 2HH2 ARG G   2      22.588  42.761  37.532  1.00 84.93 LIG 0.17  HD
ATOM     27 1HH2 ARG G   2      22.954  41.437  38.108  1.00 84.93 LIG 0.17  HD
ATOM     28 HE   ARG G   2      21.600  40.428  39.596  1.00 80.25 LIG 0.18  HD
ENDBRANCH 19 20
ENDBRANCH 18 19
ENDBRANCH 17 18
ENDBRANCH 6 17
ENDBRANCH 3 6
ENDBRANCH 1 2
BRANCH 1 29
ATOM     29  CB  THR G   3      13.582  36.618  42.486  1.00 68.23 LIG 0.15  C 
ATOM     30  CG2 THR G   3      14.693  35.589  42.586  1.00 68.63 LIG 0.04  C 
BRANCH 29 31
ATOM     31 OG1  THR G   3      12.897  36.705  43.742  1.00 67.51 LIG-0.39  OA
ATOM     32 HG1  THR G   3      12.068  36.683  43.611  1.00 67.51 LIG 0.21  HD
ENDBRANCH 29 31
ENDBRANCH 1 29
BRANCH 1 33
ATOM     33  C   THR G   3      13.817  39.011  43.184  1.00 68.02 LIG 0.24  C 
ATOM     34  N   ALA G   4      12.558  39.445  43.210  1.00 68.86 LIG-0.35  N 
ATOM     35 H    ALA G   4      11.968  39.221  42.626  1.00 68.86 LIG 0.16  HD
ATOM     36 O    THR G   3      14.681  39.388  43.979  1.00 67.54 LIG-0.27  OA
BRANCH 34 37
ATOM     37  CA  ALA G   4      12.055  40.354  44.244  1.00 69.75 LIG 0.17  C 
ATOM     38  CB  ALA G   4      10.585  40.654  44.005  1.00 70.86 LIG 0.04  C 
BRANCH 37 39
ATOM     39  C   ALA G   4      12.264  39.812  45.664  1.00 71.43 LIG 0.24  C 
ATOM     40  N   ALA G   5      12.299  38.484  45.801  1.00 71.85 LIG-0.35  N 
ATOM     41 H    ALA G   5      12.155  37.937  45.154  1.00 71.85 LIG 0.16  HD
ATOM     42 O    ALA G   4      12.391  40.592  46.613  1.00 72.80 LIG-0.27  OA
BRANCH 40 43
ATOM     43  CA  ALA G   5      12.591  37.831  47.082  1.00 72.89 LIG 0.17  C 
ATOM     44  CB  ALA G   5      11.388  37.025  47.555  1.00 72.65 LIG 0.04  C 
BRANCH 43 45
ATOM     45  C   ALA G   5      13.833  36.937  47.003  1.00 72.87 LIG 0.24  C 
ATOM     46  N   THR G   6      13.712  35.796  46.319  1.00 71.86 LIG-0.34  N 
ATOM     47 H    THR G   6      12.982  35.541  45.943  1.00 71.86 LIG 0.16  HD
ATOM     48 O    ALA G   5      14.879  37.283  47.555  1.00 74.40 LIG-0.27  OA
BRANCH 46 49
ATOM     49  CA  THR G   6      14.837  34.861  46.146  1.00 72.17 LIG 0.20  C 
BRANCH 49 50
ATOM     50  CB  THR G   6      14.458  33.639  45.276  1.00 71.29 LIG 0.15  C 
ATOM     51  CG2 THR G   6      14.859  32.337  45.964  1.00 70.64 LIG 0.04  C 
BRANCH 50 52
ATOM     52 OG1  THR G   6      13.048  33.635  45.024  1.00 70.47 LIG-0.39  OA
ATOM     53 HG1  THR G   6      12.633  33.581  45.753  1.00 70.47 LIG 0.21  HD
ENDBRANCH 50 52
ENDBRANCH 49 50
BRANCH 49 54
ATOM     54  C   THR G   6      16.078  35.538  45.547  1.00 73.53 LIG 0.24  C 
ATOM     55  N   ALA G   7      17.226  34.855  45.605  1.00 73.25 LIG-0.35  N 
ATOM     56 H    ALA G   7      17.311  34.111  46.028  1.00 73.25 LIG 0.16  HD
ATOM     57 O    THR G   6      15.985  36.665  45.056  1.00 75.15 LIG-0.27  OA
BRANCH 55 58
ATOM     58  CA  ALA G   7      18.461  35.308  44.950  1.00 74.45 LIG 0.16  C 
ATOM     59  CB  ALA G   7      19.656  34.514  45.460  1.00 73.04 LIG 0.04  C 
BRANCH 58 60
ATOM     60  C   ALA G   7      18.348  35.173  43.432  1.00 76.13 LIG 0.22  C 
ATOM     61 O    ALA G   7      17.539  34.396  42.922  1.00 77.97 LIG-0.29  OA
ENDBRANCH 58 60
ENDBRANCH 55 58
ENDBRANCH 49 54
ENDBRANCH 46 49
ENDBRANCH 43 45
ENDBRANCH 40 43
ENDBRANCH 37 39
ENDBRANCH 34 37
ENDBRANCH 1 33
TORSDOF 22
ENDMDL
MODEL 11
USER: ADFR SOLUTION from run 41
USER: SCORE 14.924604 LL:  -3.475 LR: -15.669 RR:   0.000 FEB:  -9.106
USER: RMSD 3.651060
USER: SEED 40
USER: STATUS no improvement in best in 17 clusters for 5 generations
USER: GENES 24
USER: genes 0 Translation |==|  0.32530 0.47913 0.44517
USER: genes 1 Rotation |==|  0.56467 0.53685 0.55776 0.99104
USER: genes 2 Torsion [CB]-CA--N-[C] |==|  0.21286
USER: genes 3 Torsion [N]-C--CA-[N] |==|  0.51787
USER: genes 4 Torsion [C]-CA--N-[C] |==|  0.75994
USER: genes 5 Torsion [N]-C--CA-[N] |==|  0.26580
USER: genes 6 Torsion [C]-CA--N-[H1] |==|  0.68780
USER: genes 7 Torsion [C]-CA--CB-[CG] |==|  0.51468
USER: genes 8 Torsion [CA]-CB--CG-[CD] |==|  0.41279
USER: genes 9 Torsion [CB]-CG--CD-[NE] |==|  0.55769
USER: genes 10 Torsion [CG]-CD--NE-[CZ] |==|  0.44870
USER: genes 11 Torsion [N]-CA--CB-[OG1] |==|  0.51127
USER: genes 12 Torsion [CA]-CB--OG1-[HG1] |==|  0.81012
USER: genes 13 Torsion [N]-CA--C-[N] |==|  0.42320
USER: genes 14 Torsion [C]-N--CA-[CB] |==|  0.46744
USER: genes 15 Torsion [N]-CA--C-[N] |==|  0.01285
USER: genes 16 Torsion [C]-N--CA-[CB] |==|  0.54506
USER: genes 17 Torsion [N]-CA--C-[N] |==|  0.43400
USER: genes 18 Torsion [C]-N--CA-[CB] |==|  0.52932
USER: genes 19 Torsion [N]-CA--CB-[CG2] |==|  0.76618
USER: genes 20 Torsion [CA]-CB--OG1-[HG1] |==|  0.80369
USER: genes 21 Torsion [N]-CA--C-[N] |==|  0.89181
USER: genes 22 Torsion [C]-N--CA-[C] |==|  0.71529
USER: genes 23 Torsion [N]-CA--C-[O] |==|  0.14354
ROOT
ATOM      1  CA  THR G   3      14.207  37.778  42.053  1.00 68.23 LIG 0.20  C 
ENDROOT
BRANCH 1 2
ATOM      2  N   THR G   3      15.626  37.821  41.713  1.00 68.42 LIG-0.34  N 
ATOM      3  C   ARG G   2      16.096  37.514  40.506  1.00 70.38 LIG 0.24  C 
ATOM      4 O    ARG G   2      15.397  37.061  39.592  1.00 69.46 LIG-0.27  OA
ATOM      5 H    THR G   3      16.130  38.063  42.366  1.00 68.42 LIG 0.16  HD
BRANCH 3 6
ATOM      6  CA  ARG G   2      17.593  37.727  40.309  1.00 72.62 LIG 0.18  C 
BRANCH 6 7
ATOM      7  N   ARG G   2      17.929  37.497  38.906  1.00 74.86 LIG-0.35  N 
ATOM      8  C   ALA G   1      18.208  36.284  38.435  1.00 76.29 LIG 0.25  C 
ATOM      9 O    ALA G   1      18.381  35.295  39.154  1.00 75.70 LIG-0.27  OA
ATOM     10 H    ARG G   2      17.928  38.208  38.423  1.00 74.86 LIG 0.16  HD
BRANCH 8 11
ATOM     11  CA  ALA G   1      18.320  36.167  36.923  1.00 78.97 LIG 0.27  C 
ATOM     12  CB  ALA G   1      17.715  34.847  36.460  1.00 79.33 LIG 0.05  C 
BRANCH 11 13
ATOM     13  N   ALA G   1      19.742  36.274  36.494  1.00 81.42 LIG-0.07  N 
ATOM     14 H3   ALA G   1      19.949  35.580  35.976  1.00 81.42 LIG 0.28  HD
ATOM     15 H2   ALA G   1      20.269  36.276  37.211  1.00 81.42 LIG 0.28  HD
ATOM     16 H1   ALA G   1      19.859  37.029  36.038  1.00 81.42 LIG 0.28  HD
ENDBRANCH 11 13
ENDBRANCH 8 11
ENDBRANCH 6 7
BRANCH 6 17
ATOM     17  CB  ARG G   2      18.006  39.137  40.745  1.00 73.45 LIG 0.04  C 
BRANCH 17 18
ATOM     18  CG  ARG G   2      19.463  39.450  40.453  1.00 75.79 LIG 0.02  C 
BRANCH 18 19
ATOM     19  CD  ARG G   2      19.690  40.924  40.153  1.00 77.52 LIG 0.14  C 
BRANCH 19 20
ATOM     20  NE  ARG G   2      20.938  41.132  39.416  1.00 80.25 LIG-0.23  N 
ATOM     21  CZ  ARG G   2      21.253  42.224  38.711  1.00 82.01 LIG 0.67  C 
ATOM     22  NH1 ARG G   2      20.418  43.261  38.616  1.00 81.47 LIG-0.23  N 
ATOM     23  NH2 ARG G   2      22.425  42.279  38.084  1.00 84.93 LIG-0.23  N 
ATOM     24 1HH1 ARG G   2      19.655  43.236  39.013  1.00 81.47 LIG 0.17  HD
ATOM     25 2HH1 ARG G   2      20.642  43.953  38.157  1.00 81.47 LIG 0.17  HD
ATOM     26 2HH2 ARG G   2      22.637  42.978  37.629  1.00 84.93 LIG 0.17  HD
ATOM     27 1HH2 ARG G   2      22.972  41.617  38.134  1.00 84.93 LIG 0.17  HD
ATOM     28 HE   ARG G   2      21.519  40.497  39.438  1.00 80.25 LIG 0.18  HD
ENDBRANCH 19 20
ENDBRANCH 18 19
ENDBRANCH 17 18
ENDBRANCH 6 17
ENDBRANCH 3 6
ENDBRANCH 1 2
BRANCH 1 29
ATOM     29  CB  THR G   3      13.709  36.330  42.269  1.00 68.23 LIG 0.15  C 
ATOM     30  CG2 THR G   3      14.421  35.685  43.443  1.00 68.63 LIG 0.04  C 
BRANCH 29 31
ATOM     31 OG1  THR G   3      12.295  36.325  42.507  1.00 67.51 LIG-0.39  OA
ATOM     32 HG1  THR G   3      12.135  36.681  43.250  1.00 67.51 LIG 0.21  HD
ENDBRANCH 29 31
ENDBRANCH 1 29
BRANCH 1 33
ATOM     33  C   THR G   3      13.940  38.596  43.312  1.00 68.02 LIG 0.24  C 
ATOM     34  N   ALA G   4      12.718  39.114  43.417  1.00 68.86 LIG-0.35  N 
ATOM     35 H    ALA G   4      12.120  39.047  42.802  1.00 68.86 LIG 0.16  HD
ATOM     36 O    THR G   3      14.819  38.753  44.161  1.00 67.54 LIG-0.27  OA
BRANCH 34 37
ATOM     37  CA  ALA G   4      12.272  39.857  44.599  1.00 69.75 LIG 0.17  C 
ATOM     38  CB  ALA G   4      10.957  40.560  44.308  1.00 70.86 LIG 0.04  C 
BRANCH 37 39
ATOM     39  C   ALA G   4      12.136  38.968  45.843  1.00 71.43 LIG 0.24  C 
ATOM     40  N   ALA G   5      12.523  37.697  45.717  1.00 71.85 LIG-0.35  N 
ATOM     41 H    ALA G   5      12.781  37.350  44.974  1.00 71.85 LIG 0.16  HD
ATOM     42 O    ALA G   4      11.690  39.437  46.894  1.00 72.80 LIG-0.27  OA
BRANCH 40 43
ATOM     43  CA  ALA G   5      12.542  36.763  46.849  1.00 72.89 LIG 0.17  C 
ATOM     44  CB  ALA G   5      13.384  35.538  46.515  1.00 72.65 LIG 0.04  C 
BRANCH 43 45
ATOM     45  C   ALA G   5      13.053  37.425  48.133  1.00 72.87 LIG 0.24  C 
ATOM     46  N   THR G   6      12.673  36.873  49.289  1.00 71.86 LIG-0.34  N 
ATOM     47 H    THR G   6      12.156  36.188  49.342  1.00 71.86 LIG 0.16  HD
ATOM     48 O    ALA G   5      13.779  38.420  48.069  1.00 74.40 LIG-0.27  OA
BRANCH 46 49
ATOM     49  CA  THR G   6      13.115  37.398  50.592  1.00 72.17 LIG 0.20  C 
BRANCH 49 50
ATOM     50  CB  THR G   6      12.762  36.446  51.760  1.00 71.29 LIG 0.15  C 
ATOM     51  CG2 THR G   6      11.330  36.677  52.235  1.00 70.64 LIG 0.04  C 
BRANCH 50 52
ATOM     52 OG1  THR G   6      12.916  35.084  51.345  1.00 70.47 LIG-0.39  OA
ATOM     53 HG1  THR G   6      12.308  34.886  50.801  1.00 70.47 LIG 0.21  HD
ENDBRANCH 50 52
ENDBRANCH 49 50
BRANCH 49 54
ATOM     54  C   THR G   6      14.621  37.695  50.627  1.00 73.53 LIG 0.24  C 
ATOM     55  N   ALA G   7      15.423  36.831  49.997  1.00 73.25 LIG-0.35  N 
ATOM     56 H    ALA G   7      15.144  36.091  49.656  1.00 73.25 LIG 0.16  HD
ATOM     57 O    THR G   6      15.038  38.687  51.230  1.00 75.15 LIG-0.27  OA
BRANCH 55 58
ATOM     58  CA  ALA G   7      16.865  37.056  49.821  1.00 74.45 LIG 0.16  C 
ATOM     59  CB  ALA G   7      17.644  35.787  50.137  1.00 73.04 LIG 0.04  C 
BRANCH 58 60
ATOM     60  C   ALA G   7      17.169  37.519  48.397  1.00 76.13 LIG 0.22  C 
ATOM     61 O    ALA G   7      16.564  38.468  47.895  1.00 77.97 LIG-0.29  OA
ENDBRANCH 58 60
ENDBRANCH 55 58
ENDBRANCH 49 54
ENDBRANCH 46 49
ENDBRANCH 43 45
ENDBRANCH 40 43
ENDBRANCH 37 39
ENDBRANCH 34 37
ENDBRANCH 1 33
TORSDOF 22
ENDMDL
MODEL 12
USER: ADFR SOLUTION from run 34
USER: SCORE 16.359669 LL:  -3.112 LR: -15.615 RR:   0.000 FEB:  -9.053
USER: RMSD 4.473799
USER: SEED 33
USER: STATUS no improvement in best in 30 clusters for 5 generations
USER: GENES 24
USER: genes 0 Translation |==|  0.33385 0.50487 0.44847
USER: genes 1 Rotation |==|  0.45880 0.56027 0.56334 0.99057
USER: genes 2 Torsion [CB]-CA--N-[C] |==|  0.26586
USER: genes 3 Torsion [N]-C--CA-[N] |==|  0.52597
USER: genes 4 Torsion [C]-CA--N-[C] |==|  0.75665
USER: genes 5 Torsion [N]-C--CA-[N] |==|  0.26553
USER: genes 6 Torsion [C]-CA--N-[H1] |==|  0.04995
USER: genes 7 Torsion [C]-CA--CB-[CG] |==|  0.45321
USER: genes 8 Torsion [CA]-CB--CG-[CD] |==|  0.99368
USER: genes 9 Torsion [CB]-CG--CD-[NE] |==|  0.35566
USER: genes 10 Torsion [CG]-CD--NE-[CZ] |==|  0.55719
USER: genes 11 Torsion [N]-CA--CB-[OG1] |==|  0.59191
USER: genes 12 Torsion [CA]-CB--OG1-[HG1] |==|  0.78640
USER: genes 13 Torsion [N]-CA--C-[N] |==|  0.42688
USER: genes 14 Torsion [C]-N--CA-[CB] |==|  0.59474
USER: genes 15 Torsion [N]-CA--C-[N] |==|  0.78593
USER: genes 16 Torsion [C]-N--CA-[CB] |==|  0.82973
USER: genes 17 Torsion [N]-CA--C-[N] |==|  0.34782
USER: genes 18 Torsion [C]-N--CA-[CB] |==|  0.85361
USER: genes 19 Torsion [N]-CA--CB-[CG2] |==|  0.49286
USER: genes 20 Torsion [CA]-CB--OG1-[HG1] |==|  0.07907
USER: genes 21 Torsion [N]-CA--C-[N] |==|  0.88889
USER: genes 22 Torsion [C]-N--CA-[C] |==|  0.54758
USER: genes 23 Torsion [N]-CA--C-[O] |==|  0.82802
ROOT
ATOM      1  CA  THR G   3      14.400  38.242  42.120  1.00 68.23 LIG 0.20  C 
ENDROOT
BRANCH 1 2
ATOM      2  N   THR G   3      15.803  38.217  41.718  1.00 68.42 LIG-0.34  N 
ATOM      3  C   ARG G   2      16.213  37.775  40.532  1.00 70.38 LIG 0.24  C 
ATOM      4 O    ARG G   2      15.467  37.243  39.702  1.00 69.46 LIG-0.27  OA
ATOM      5 H    THR G   3      16.339  38.516  42.320  1.00 68.42 LIG 0.16  HD
BRANCH 3 6
ATOM      6  CA  ARG G   2      17.704  37.934  40.250  1.00 72.62 LIG 0.18  C 
BRANCH 6 7
ATOM      7  N   ARG G   2      17.962  37.616  38.848  1.00 74.86 LIG-0.35  N 
ATOM      8  C   ALA G   1      18.209  36.375  38.437  1.00 76.29 LIG 0.25  C 
ATOM      9 O    ALA G   1      18.414  35.429  39.204  1.00 75.70 LIG-0.27  OA
ATOM     10 H    ARG G   2      17.940  38.297  38.323  1.00 74.86 LIG 0.16  HD
BRANCH 8 11
ATOM     11  CA  ALA G   1      18.239  36.165  36.931  1.00 78.97 LIG 0.27  C 
ATOM     12  CB  ALA G   1      17.604  34.824  36.582  1.00 79.33 LIG 0.05  C 
BRANCH 11 13
ATOM     13  N   ALA G   1      19.636  36.235  36.420  1.00 81.42 LIG-0.07  N 
ATOM     14 H3   ALA G   1      19.775  37.029  36.042  1.00 81.42 LIG 0.28  HD
ATOM     15 H2   ALA G   1      19.764  35.593  35.818  1.00 81.42 LIG 0.28  HD
ATOM     16 H1   ALA G   1      20.205  36.125  37.096  1.00 81.42 LIG 0.28  HD
ENDBRANCH 11 13
ENDBRANCH 8 11
ENDBRANCH 6 7
BRANCH 6 17
ATOM     17  CB  ARG G   2      18.174  39.353  40.584  1.00 73.45 LIG 0.04  C 
BRANCH 17 18
ATOM     18  CG  ARG G   2      19.683  39.466  40.717  1.00 75.79 LIG 0.02  C 
BRANCH 18 19
ATOM     19  CD  ARG G   2      20.383  38.127  40.541  1.00 77.52 LIG 0.14  C 
BRANCH 19 20
ATOM     20  NE  ARG G   2      21.451  38.211  39.542  1.00 80.25 LIG-0.23  N 
ATOM     21  CZ  ARG G   2      21.982  37.178  38.881  1.00 82.01 LIG 0.67  C 
ATOM     22  NH1 ARG G   2      21.565  35.926  39.088  1.00 81.47 LIG-0.23  N 
ATOM     23  NH2 ARG G   2      22.954  37.397  38.000  1.00 84.93 LIG-0.23  N 
ATOM     24 1HH1 ARG G   2      20.940  35.770  39.658  1.00 81.47 LIG 0.17  HD
ATOM     25 2HH1 ARG G   2      21.922  35.276  38.651  1.00 81.47 LIG 0.17  HD
ATOM     26 2HH2 ARG G   2      23.302  36.738  37.570  1.00 84.93 LIG 0.17  HD
ATOM     27 1HH2 ARG G   2      23.235  38.198  37.859  1.00 84.93 LIG 0.17  HD
ATOM     28 HE   ARG G   2      21.764  38.993  39.365  1.00 80.25 LIG 0.18  HD
ENDBRANCH 19 20
ENDBRANCH 18 19
ENDBRANCH 17 18
ENDBRANCH 6 17
ENDBRANCH 3 6
ENDBRANCH 1 2
BRANCH 1 29
ATOM     29  CB  THR G   3      14.013  36.989  42.942  1.00 68.23 LIG 0.15  C 
ATOM     30  CG2 THR G   3      14.191  37.244  44.427  1.00 68.63 LIG 0.04  C 
BRANCH 29 31
ATOM     31 OG1  THR G   3      12.651  36.627  42.678  1.00 67.51 LIG-0.39  OA
ATOM     32 HG1  THR G   3      12.138  37.147  43.093  1.00 67.51 LIG 0.21  HD
ENDBRANCH 29 31
ENDBRANCH 1 29
BRANCH 1 33
ATOM     33  C   THR G   3      14.106  39.493  42.940  1.00 68.02 LIG 0.24  C 
ATOM     34  N   ALA G   4      12.846  39.924  42.908  1.00 68.86 LIG-0.35  N 
ATOM     35 H    ALA G   4      12.235  39.563  42.423  1.00 68.86 LIG 0.16  HD
ATOM     36 O    THR G   3      14.998  40.052  43.581  1.00 67.54 LIG-0.27  OA
BRANCH 34 37
ATOM     37  CA  ALA G   4      12.379  41.062  43.704  1.00 69.75 LIG 0.17  C 
ATOM     38  CB  ALA G   4      10.941  40.837  44.142  1.00 70.86 LIG 0.04  C 
BRANCH 37 39
ATOM     39  C   ALA G   4      13.269  41.342  44.922  1.00 71.43 LIG 0.24  C 
ATOM     40  N   ALA G   5      13.122  40.531  45.972  1.00 71.85 LIG-0.35  N 
ATOM     41 H    ALA G   5      12.525  39.914  46.015  1.00 71.85 LIG 0.16  HD
ATOM     42 O    ALA G   4      14.073  42.279  44.899  1.00 72.80 LIG-0.27  OA
BRANCH 40 43
ATOM     43  CA  ALA G   5      13.975  40.620  47.162  1.00 72.89 LIG 0.17  C 
ATOM     44  CB  ALA G   5      15.431  40.362  46.795  1.00 72.65 LIG 0.04  C 
BRANCH 43 45
ATOM     45  C   ALA G   5      13.837  41.973  47.870  1.00 72.87 LIG 0.24  C 
ATOM     46  N   THR G   6      13.516  41.945  49.166  1.00 71.86 LIG-0.34  N 
ATOM     47 H    THR G   6      13.373  41.220  49.606  1.00 71.86 LIG 0.16  HD
ATOM     48 O    ALA G   5      14.020  43.019  47.244  1.00 74.40 LIG-0.27  OA
BRANCH 46 49
ATOM     49  CA  THR G   6      13.378  43.173  49.968  1.00 72.17 LIG 0.20  C 
BRANCH 49 50
ATOM     50  CB  THR G   6      14.621  44.087  49.863  1.00 71.29 LIG 0.15  C 
ATOM     51  CG2 THR G   6      14.415  45.377  50.654  1.00 70.64 LIG 0.04  C 
BRANCH 50 52
ATOM     52 OG1  THR G   6      15.777  43.401  50.356  1.00 70.47 LIG-0.39  OA
ATOM     53 HG1  THR G   6      15.682  42.574  50.244  1.00 70.47 LIG 0.21  HD
ENDBRANCH 50 52
ENDBRANCH 49 50
BRANCH 49 54
ATOM     54  C   THR G   6      12.128  43.982  49.593  1.00 73.53 LIG 0.24  C 
ATOM     55  N   ALA G   7      11.827  44.062  48.293  1.00 73.25 LIG-0.35  N 
ATOM     56 H    ALA G   7      12.338  43.760  47.671  1.00 73.25 LIG 0.16  HD
ATOM     57 O    THR G   6      11.464  44.531  50.475  1.00 75.15 LIG-0.27  OA
BRANCH 55 58
ATOM     58  CA  ALA G   7      10.589  44.677  47.793  1.00 74.45 LIG 0.16  C 
ATOM     59  CB  ALA G   7      10.671  46.194  47.890  1.00 73.04 LIG 0.04  C 
BRANCH 58 60
ATOM     60  C   ALA G   7      10.322  44.256  46.348  1.00 76.13 LIG 0.22  C 
ATOM     61 O    ALA G   7      11.113  44.540  45.447  1.00 77.97 LIG-0.29  OA
ENDBRANCH 58 60
ENDBRANCH 55 58
ENDBRANCH 49 54
ENDBRANCH 46 49
ENDBRANCH 43 45
ENDBRANCH 40 43
ENDBRANCH 37 39
ENDBRANCH 34 37
ENDBRANCH 1 33
TORSDOF 22
ENDMDL
MODEL 13
USER: ADFR SOLUTION from run 41
USER: SCORE 15.803199 LL:  -3.704 LR: -15.623 RR:   0.000 FEB:  -9.061
USER: RMSD 3.769520
USER: SEED 40
USER: STATUS no improvement in best in 17 clusters for 5 generations
USER: GENES 24
USER: genes 0 Translation |==|  0.32812 0.48391 0.44269
USER: genes 1 Rotation |==|  0.57903 0.53520 0.55909 0.98890
USER: genes 2 Torsion [CB]-CA--N-[C] |==|  0.20486
USER: genes 3 Torsion [N]-C--CA-[N] |==|  0.51099
USER: genes 4 Torsion [C]-CA--N-[C] |==|  0.78333
USER: genes 5 Torsion [N]-C--CA-[N] |==|  0.25269
USER: genes 6 Torsion [C]-CA--N-[H1] |==|  0.68564
USER: genes 7 Torsion [C]-CA--CB-[CG] |==|  0.50007
USER: genes 8 Torsion [CA]-CB--CG-[CD] |==|  0.40997
USER: genes 9 Torsion [CB]-CG--CD-[NE] |==|  0.57787
USER: genes 10 Torsion [CG]-CD--NE-[CZ] |==|  0.46848
USER: genes 11 Torsion [N]-CA--CB-[OG1] |==|  0.50838
USER: genes 12 Torsion [CA]-CB--OG1-[HG1] |==|  0.81126
USER: genes 13 Torsion [N]-CA--C-[N] |==|  0.41637
USER: genes 14 Torsion [C]-N--CA-[CB] |==|  0.46705
USER: genes 15 Torsion [N]-CA--C-[N] |==|  0.02092
USER: genes 16 Torsion [C]-N--CA-[CB] |==|  0.57321
USER: genes 17 Torsion [N]-CA--C-[N] |==|  0.31737
USER: genes 18 Torsion [C]-N--CA-[CB] |==|  0.85953
USER: genes 19 Torsion [N]-CA--CB-[CG2] |==|  0.55407
USER: genes 20 Torsion [CA]-CB--OG1-[HG1] |==|  0.92503
USER: genes 21 Torsion [N]-CA--C-[N] |==|  0.89213
USER: genes 22 Torsion [C]-N--CA-[C] |==|  0.79369
USER: genes 23 Torsion [N]-CA--C-[O] |==|  0.66320
ROOT
ATOM      1  CA  THR G   3      14.271  37.864  42.003  1.00 68.23 LIG 0.20  C 
ENDROOT
BRANCH 1 2
ATOM      2  N   THR G   3      15.689  37.928  41.666  1.00 68.42 LIG-0.34  N 
ATOM      3  C   ARG G   2      16.165  37.640  40.457  1.00 70.38 LIG 0.24  C 
ATOM      4 O    ARG G   2      15.474  37.187  39.538  1.00 69.46 LIG-0.27  OA
ATOM      5 H    THR G   3      16.189  38.170  42.322  1.00 68.42 LIG 0.16  HD
BRANCH 3 6
ATOM      6  CA  ARG G   2      17.660  37.874  40.264  1.00 72.62 LIG 0.18  C 
BRANCH 6 7
ATOM      7  N   ARG G   2      18.011  37.604  38.873  1.00 74.86 LIG-0.35  N 
ATOM      8  C   ALA G   1      18.156  36.366  38.406  1.00 76.29 LIG 0.25  C 
ATOM      9 O    ALA G   1      18.183  35.364  39.126  1.00 75.70 LIG-0.27  OA
ATOM     10 H    ARG G   2      18.114  38.310  38.392  1.00 74.86 LIG 0.16  HD
BRANCH 8 11
ATOM     11  CA  ALA G   1      18.303  36.236  36.898  1.00 78.97 LIG 0.27  C 
ATOM     12  CB  ALA G   1      17.657  34.939  36.425  1.00 79.33 LIG 0.05  C 
BRANCH 11 13
ATOM     13  N   ALA G   1      19.739  36.283  36.506  1.00 81.42 LIG-0.07  N 
ATOM     14 H3   ALA G   1      19.935  35.572  36.006  1.00 81.42 LIG 0.28  HD
ATOM     15 H2   ALA G   1      20.247  36.279  37.238  1.00 81.42 LIG 0.28  HD
ATOM     16 H1   ALA G   1      19.896  37.025  36.041  1.00 81.42 LIG 0.28  HD
ENDBRANCH 11 13
ENDBRANCH 8 11
ENDBRANCH 6 7
BRANCH 6 17
ATOM     17  CB  ARG G   2      18.043  39.304  40.658  1.00 73.45 LIG 0.04  C 
BRANCH 17 18
ATOM     18  CG  ARG G   2      19.524  39.594  40.485  1.00 75.79 LIG 0.02  C 
BRANCH 18 19
ATOM     19  CD  ARG G   2      19.789  41.042  40.102  1.00 77.52 LIG 0.14  C 
BRANCH 19 20
ATOM     20  NE  ARG G   2      21.024  41.170  39.324  1.00 80.25 LIG-0.23  N 
ATOM     21  CZ  ARG G   2      21.418  42.263  38.663  1.00 82.01 LIG 0.67  C 
ATOM     22  NH1 ARG G   2      20.685  43.378  38.655  1.00 81.47 LIG-0.23  N 
ATOM     23  NH2 ARG G   2      22.566  42.240  37.991  1.00 84.93 LIG-0.23  N 
ATOM     24 1HH1 ARG G   2      19.938  43.405  39.082  1.00 81.47 LIG 0.17  HD
ATOM     25 2HH1 ARG G   2      20.958  44.070  38.222  1.00 81.47 LIG 0.17  HD
ATOM     26 2HH2 ARG G   2      22.828  42.939  37.563  1.00 84.93 LIG 0.17  HD
ATOM     27 1HH2 ARG G   2      23.047  41.527  37.984  1.00 84.93 LIG 0.17  HD
ATOM     28 HE   ARG G   2      21.541  40.482  39.290  1.00 80.25 LIG 0.18  HD
ENDBRANCH 19 20
ENDBRANCH 18 19
ENDBRANCH 17 18
ENDBRANCH 6 17
ENDBRANCH 3 6
ENDBRANCH 1 2
BRANCH 1 29
ATOM     29  CB  THR G   3      13.774  36.405  42.134  1.00 68.23 LIG 0.15  C 
ATOM     30  CG2 THR G   3      14.505  35.685  43.251  1.00 68.63 LIG 0.04  C 
BRANCH 29 31
ATOM     31 OG1  THR G   3      12.364  36.385  42.395  1.00 67.51 LIG-0.39  OA
ATOM     32 HG1  THR G   3      12.217  36.698  43.160  1.00 67.51 LIG 0.21  HD
ENDBRANCH 29 31
ENDBRANCH 1 29
BRANCH 1 33
ATOM     33  C   THR G   3      14.002  38.606  43.308  1.00 68.02 LIG 0.24  C 
ATOM     34  N   ALA G   4      12.797  39.160  43.422  1.00 68.86 LIG-0.35  N 
ATOM     35 H    ALA G   4      12.211  39.154  42.792  1.00 68.86 LIG 0.16  HD
ATOM     36 O    THR G   3      14.867  38.676  44.184  1.00 67.54 LIG-0.27  OA
BRANCH 34 37
ATOM     37  CA  ALA G   4      12.349  39.838  44.641  1.00 69.75 LIG 0.17  C 
ATOM     38  CB  ALA G   4      11.068  40.609  44.370  1.00 70.86 LIG 0.04  C 
BRANCH 37 39
ATOM     39  C   ALA G   4      12.152  38.875  45.819  1.00 71.43 LIG 0.24  C 
ATOM     40  N   ALA G   5      12.550  37.614  45.637  1.00 71.85 LIG-0.35  N 
ATOM     41 H    ALA G   5      12.849  37.315  44.888  1.00 71.85 LIG 0.16  HD
ATOM     42 O    ALA G   4      11.647  39.278  46.871  1.00 72.80 LIG-0.27  OA
BRANCH 40 43
ATOM     43  CA  ALA G   5      12.514  36.613  46.708  1.00 72.89 LIG 0.17  C 
ATOM     44  CB  ALA G   5      13.562  35.535  46.466  1.00 72.65 LIG 0.04  C 
BRANCH 43 45
ATOM     45  C   ALA G   5      12.708  37.243  48.092  1.00 72.87 LIG 0.24  C 
ATOM     46  N   THR G   6      11.672  37.183  48.932  1.00 71.86 LIG-0.34  N 
ATOM     47 H    THR G   6      10.914  36.829  48.731  1.00 71.86 LIG 0.16  HD
ATOM     48 O    ALA G   5      13.783  37.771  48.385  1.00 74.40 LIG-0.27  OA
BRANCH 46 49
ATOM     49  CA  THR G   6      11.737  37.728  50.300  1.00 72.17 LIG 0.20  C 
BRANCH 49 50
ATOM     50  CB  THR G   6      12.979  37.228  51.074  1.00 71.29 LIG 0.15  C 
ATOM     51  CG2 THR G   6      12.786  37.398  52.579  1.00 70.64 LIG 0.04  C 
BRANCH 50 52
ATOM     52 OG1  THR G   6      13.222  35.849  50.773  1.00 70.47 LIG-0.39  OA
ATOM     53 HG1  THR G   6      12.499  35.477  50.559  1.00 70.47 LIG 0.21  HD
ENDBRANCH 50 52
ENDBRANCH 49 50
BRANCH 49 54
ATOM     54  C   THR G   6      11.717  39.263  50.323  1.00 73.53 LIG 0.24  C 
ATOM     55  N   ALA G   7      12.405  39.891  49.365  1.00 73.25 LIG-0.35  N 
ATOM     56 H    ALA G   7      12.914  39.482  48.804  1.00 73.25 LIG 0.16  HD
ATOM     57 O    THR G   6      11.095  39.856  51.208  1.00 75.15 LIG-0.27  OA
BRANCH 55 58
ATOM     58  CA  ALA G   7      12.364  41.348  49.171  1.00 74.45 LIG 0.16  C 
ATOM     59  CB  ALA G   7      13.529  41.803  48.303  1.00 73.04 LIG 0.04  C 
BRANCH 58 60
ATOM     60  C   ALA G   7      11.039  41.771  48.538  1.00 76.13 LIG 0.22  C 
ATOM     61 O    ALA G   7      11.011  42.371  47.462  1.00 77.97 LIG-0.29  OA
ENDBRANCH 58 60
ENDBRANCH 55 58
ENDBRANCH 49 54
ENDBRANCH 46 49
ENDBRANCH 43 45
ENDBRANCH 40 43
ENDBRANCH 37 39
ENDBRANCH 34 37
ENDBRANCH 1 33
TORSDOF 22
ENDMDL
MODEL 14
USER: ADFR SOLUTION from run 189
USER: SCORE 16.633859 LL:  -3.554 LR: -15.548 RR:   0.000 FEB:  -8.986
USER: RMSD 4.375271
USER: SEED 188
USER: STATUS no improvement in best in 25 clusters for 5 generations
USER: GENES 24
USER: genes 0 Translation |==|  0.32548 0.47039 0.46825
USER: genes 1 Rotation |==|  0.65820 0.54017 0.56150 0.96859
USER: genes 2 Torsion [CB]-CA--N-[C] |==|  0.17729
USER: genes 3 Torsion [N]-C--CA-[N] |==|  0.48562
USER: genes 4 Torsion [C]-CA--N-[C] |==|  0.78478
USER: genes 5 Torsion [N]-C--CA-[N] |==|  0.24515
USER: genes 6 Torsion [C]-CA--N-[H1] |==|  0.58559
USER: genes 7 Torsion [C]-CA--CB-[CG] |==|  0.50821
USER: genes 8 Torsion [CA]-CB--CG-[CD] |==|  0.33727
USER: genes 9 Torsion [CB]-CG--CD-[NE] |==|  0.55350
USER: genes 10 Torsion [CG]-CD--NE-[CZ] |==|  0.55261
USER: genes 11 Torsion [N]-CA--CB-[OG1] |==|  0.52878
USER: genes 12 Torsion [CA]-CB--OG1-[HG1] |==|  0.00747
USER: genes 13 Torsion [N]-CA--C-[N] |==|  0.54944
USER: genes 14 Torsion [C]-N--CA-[CB] |==|  0.75961
USER: genes 15 Torsion [N]-CA--C-[N] |==|  0.73449
USER: genes 16 Torsion [C]-N--CA-[CB] |==|  0.53977
USER: genes 17 Torsion [N]-CA--C-[N] |==|  0.37208
USER: genes 18 Torsion [C]-N--CA-[CB] |==|  0.86776
USER: genes 19 Torsion [N]-CA--CB-[CG2] |==|  0.53080
USER: genes 20 Torsion [CA]-CB--OG1-[HG1] |==|  0.02592
USER: genes 21 Torsion [N]-CA--C-[N] |==|  0.89865
USER: genes 22 Torsion [C]-N--CA-[C] |==|  0.78162
USER: genes 23 Torsion [N]-CA--C-[O] |==|  0.15484
ROOT
ATOM      1  CA  THR G   3      14.211  37.621  42.520  1.00 68.23 LIG 0.20  C 
ENDROOT
BRANCH 1 2
ATOM      2  N   THR G   3      15.608  37.802  42.136  1.00 68.42 LIG-0.34  N 
ATOM      3  C   ARG G   2      16.033  37.725  40.878  1.00 70.38 LIG 0.24  C 
ATOM      4 O    ARG G   2      15.315  37.386  39.930  1.00 69.46 LIG-0.27  OA
ATOM      5 H    THR G   3      16.130  37.963  42.800  1.00 68.42 LIG 0.16  HD
BRANCH 3 6
ATOM      6  CA  ARG G   2      17.506  38.055  40.659  1.00 72.62 LIG 0.18  C 
BRANCH 6 7
ATOM      7  N   ARG G   2      17.850  37.808  39.262  1.00 74.86 LIG-0.35  N 
ATOM      8  C   ALA G   1      18.057  36.581  38.789  1.00 76.29 LIG 0.25  C 
ATOM      9 O    ALA G   1      18.151  35.580  39.506  1.00 75.70 LIG-0.27  OA
ATOM     10 H    ARG G   2      17.905  38.519  38.781  1.00 74.86 LIG 0.16  HD
BRANCH 8 11
ATOM     11  CA  ALA G   1      18.187  36.462  37.279  1.00 78.97 LIG 0.27  C 
ATOM     12  CB  ALA G   1      17.669  35.103  36.820  1.00 79.33 LIG 0.05  C 
BRANCH 11 13
ATOM     13  N   ALA G   1      19.603  36.655  36.859  1.00 81.42 LIG-0.07  N 
ATOM     14 H3   ALA G   1      20.018  35.867  36.840  1.00 81.42 LIG 0.28  HD
ATOM     15 H2   ALA G   1      20.013  37.193  37.437  1.00 81.42 LIG 0.28  HD
ATOM     16 H1   ALA G   1      19.625  37.020  36.047  1.00 81.42 LIG 0.28  HD
ENDBRANCH 11 13
ENDBRANCH 8 11
ENDBRANCH 6 7
BRANCH 6 17
ATOM     17  CB  ARG G   2      17.803  39.507  41.046  1.00 73.45 LIG 0.04  C 
BRANCH 17 18
ATOM     18  CG  ARG G   2      19.242  39.914  40.782  1.00 75.79 LIG 0.02  C 
BRANCH 18 19
ATOM     19  CD  ARG G   2      19.344  41.098  39.833  1.00 77.52 LIG 0.14  C 
BRANCH 19 20
ATOM     20  NE  ARG G   2      20.680  41.191  39.238  1.00 80.25 LIG-0.23  N 
ATOM     21  CZ  ARG G   2      21.202  42.279  38.663  1.00 82.01 LIG 0.67  C 
ATOM     22  NH1 ARG G   2      20.518  43.422  38.578  1.00 81.47 LIG-0.23  N 
ATOM     23  NH2 ARG G   2      22.432  42.223  38.158  1.00 84.93 LIG-0.23  N 
ATOM     24 1HH1 ARG G   2      19.721  43.471  38.897  1.00 81.47 LIG 0.17  HD
ATOM     25 2HH1 ARG G   2      20.875  44.110  38.204  1.00 81.47 LIG 0.17  HD
ATOM     26 2HH2 ARG G   2      22.777  42.918  37.786  1.00 84.93 LIG 0.17  HD
ATOM     27 1HH2 ARG G   2      22.883  41.492  38.203  1.00 84.93 LIG 0.17  HD
ATOM     28 HE   ARG G   2      21.171  40.484  39.261  1.00 80.25 LIG 0.18  HD
ENDBRANCH 19 20
ENDBRANCH 18 19
ENDBRANCH 17 18
ENDBRANCH 6 17
ENDBRANCH 3 6
ENDBRANCH 1 2
BRANCH 1 29
ATOM     29  CB  THR G   3      13.709  36.191  42.212  1.00 68.23 LIG 0.15  C 
ATOM     30  CG2 THR G   3      14.372  35.178  43.127  1.00 68.63 LIG 0.04  C 
BRANCH 29 31
ATOM     31 OG1  THR G   3      12.286  36.122  42.375  1.00 67.51 LIG-0.39  OA
ATOM     32 HG1  THR G   3      11.990  36.882  42.572  1.00 67.51 LIG 0.21  HD
ENDBRANCH 29 31
ENDBRANCH 1 29
BRANCH 1 33
ATOM     33  C   THR G   3      14.030  37.909  44.006  1.00 68.02 LIG 0.24  C 
ATOM     34  N   ALA G   4      12.913  37.435  44.556  1.00 68.86 LIG-0.35  N 
ATOM     35 H    ALA G   4      12.298  37.034  44.108  1.00 68.86 LIG 0.16  HD
ATOM     36 O    THR G   3      14.878  38.546  44.635  1.00 67.54 LIG-0.27  OA
BRANCH 34 37
ATOM     37  CA  ALA G   4      12.623  37.554  45.987  1.00 69.75 LIG 0.17  C 
ATOM     38  CB  ALA G   4      13.239  36.388  46.742  1.00 70.86 LIG 0.04  C 
BRANCH 37 39
ATOM     39  C   ALA G   4      13.099  38.885  46.583  1.00 71.43 LIG 0.24  C 
ATOM     40  N   ALA G   5      14.297  38.884  47.173  1.00 71.85 LIG-0.35  N 
ATOM     41 H    ALA G   5      14.771  38.175  47.282  1.00 71.85 LIG 0.16  HD
ATOM     42 O    ALA G   4      12.388  39.890  46.501  1.00 72.80 LIG-0.27  OA
BRANCH 40 43
ATOM     43  CA  ALA G   5      14.919  40.106  47.695  1.00 72.89 LIG 0.17  C 
ATOM     44  CB  ALA G   5      16.396  39.870  47.983  1.00 72.65 LIG 0.04  C 
BRANCH 43 45
ATOM     45  C   ALA G   5      14.746  41.293  46.742  1.00 72.87 LIG 0.24  C 
ATOM     46  N   THR G   6      14.359  42.451  47.284  1.00 71.86 LIG-0.34  N 
ATOM     47 H    THR G   6      14.194  42.553  48.122  1.00 71.86 LIG 0.16  HD
ATOM     48 O    ALA G   5      14.961  41.154  45.536  1.00 74.40 LIG-0.27  OA
BRANCH 46 49
ATOM     49  CA  THR G   6      14.181  43.674  46.482  1.00 72.17 LIG 0.20  C 
BRANCH 49 50
ATOM     50  CB  THR G   6      15.376  43.937  45.536  1.00 71.29 LIG 0.15  C 
ATOM     51  CG2 THR G   6      15.291  45.335  44.928  1.00 70.64 LIG 0.04  C 
BRANCH 50 52
ATOM     52 OG1  THR G   6      16.608  43.800  46.254  1.00 70.47 LIG-0.39  OA
ATOM     53 HG1  THR G   6      16.456  43.480  47.016  1.00 70.47 LIG 0.21  HD
ENDBRANCH 50 52
ENDBRANCH 49 50
BRANCH 49 54
ATOM     54  C   THR G   6      12.886  43.653  45.658  1.00 73.53 LIG 0.24  C 
ATOM     55  N   ALA G   7      12.513  42.475  45.146  1.00 73.25 LIG-0.35  N 
ATOM     56 H    ALA G   7      13.001  41.768  45.188  1.00 73.25 LIG 0.16  HD
ATOM     57 O    THR G   6      12.251  44.696  45.484  1.00 75.15 LIG-0.27  OA
BRANCH 55 58
ATOM     58  CA  ALA G   7      11.230  42.268  44.460  1.00 74.45 LIG 0.16  C 
ATOM     59  CB  ALA G   7      11.297  41.039  43.565  1.00 73.04 LIG 0.04  C 
BRANCH 58 60
ATOM     60  C   ALA G   7      10.094  42.122  45.472  1.00 76.13 LIG 0.22  C 
ATOM     61 O    ALA G   7       9.881  42.992  46.318  1.00 77.97 LIG-0.29  OA
ENDBRANCH 58 60
ENDBRANCH 55 58
ENDBRANCH 49 54
ENDBRANCH 46 49
ENDBRANCH 43 45
ENDBRANCH 40 43
ENDBRANCH 37 39
ENDBRANCH 34 37
ENDBRANCH 1 33
TORSDOF 22
ENDMDL
MODEL 15
USER: ADFR SOLUTION from run 45
USER: SCORE 16.278633 LL:  -3.805 LR: -15.520 RR:   0.000 FEB:  -8.958
USER: RMSD 5.068034
USER: SEED 44
USER: STATUS no improvement in best in 21 clusters for 5 generations
USER: GENES 24
USER: genes 0 Translation |==|  0.33053 0.50785 0.44882
USER: genes 1 Rotation |==|  0.43196 0.55642 0.56843 0.98734
USER: genes 2 Torsion [CB]-CA--N-[C] |==|  0.27712
USER: genes 3 Torsion [N]-C--CA-[N] |==|  0.54054
USER: genes 4 Torsion [C]-CA--N-[C] |==|  0.75953
USER: genes 5 Torsion [N]-C--CA-[N] |==|  0.28876
USER: genes 6 Torsion [C]-CA--N-[H1] |==|  0.69120
USER: genes 7 Torsion [C]-CA--CB-[CG] |==|  0.50581
USER: genes 8 Torsion [CA]-CB--CG-[CD] |==|  0.40717
USER: genes 9 Torsion [CB]-CG--CD-[NE] |==|  0.57094
USER: genes 10 Torsion [CG]-CD--NE-[CZ] |==|  0.46733
USER: genes 11 Torsion [N]-CA--CB-[OG1] |==|  0.60314
USER: genes 12 Torsion [CA]-CB--OG1-[HG1] |==|  0.68113
USER: genes 13 Torsion [N]-CA--C-[N] |==|  0.46111
USER: genes 14 Torsion [C]-N--CA-[CB] |==|  0.54199
USER: genes 15 Torsion [N]-CA--C-[N] |==|  0.27756
USER: genes 16 Torsion [C]-N--CA-[CB] |==|  0.49461
USER: genes 17 Torsion [N]-CA--C-[N] |==|  0.29622
USER: genes 18 Torsion [C]-N--CA-[CB] |==|  0.85548
USER: genes 19 Torsion [N]-CA--CB-[CG2] |==|  0.52186
USER: genes 20 Torsion [CA]-CB--OG1-[HG1] |==|  0.24610
USER: genes 21 Torsion [N]-CA--C-[N] |==|  0.89849
USER: genes 22 Torsion [C]-N--CA-[C] |==|  0.52272
USER: genes 23 Torsion [N]-CA--C-[O] |==|  0.98491
ROOT
ATOM      1  CA  THR G   3      14.325  38.295  42.127  1.00 68.23 LIG 0.20  C 
ENDROOT
BRANCH 1 2
ATOM      2  N   THR G   3      15.738  38.282  41.762  1.00 68.42 LIG-0.34  N 
ATOM      3  C   ARG G   2      16.188  37.808  40.603  1.00 70.38 LIG 0.24  C 
ATOM      4 O    ARG G   2      15.473  37.235  39.773  1.00 69.46 LIG-0.27  OA
ATOM      5 H    THR G   3      16.253  38.610  42.368  1.00 68.42 LIG 0.16  HD
BRANCH 3 6
ATOM      6  CA  ARG G   2      17.682  37.983  40.355  1.00 72.62 LIG 0.18  C 
BRANCH 6 7
ATOM      7  N   ARG G   2      17.964  37.745  38.942  1.00 74.86 LIG-0.35  N 
ATOM      8  C   ALA G   1      18.200  36.526  38.463  1.00 76.29 LIG 0.25  C 
ATOM      9 O    ALA G   1      18.375  35.533  39.177  1.00 75.70 LIG-0.27  OA
ATOM     10 H    ARG G   2      17.963  38.456  38.458  1.00 74.86 LIG 0.16  HD
BRANCH 8 11
ATOM     11  CA  ALA G   1      18.257  36.405  36.948  1.00 78.97 LIG 0.27  C 
ATOM     12  CB  ALA G   1      17.432  35.207  36.493  1.00 79.33 LIG 0.05  C 
BRANCH 11 13
ATOM     13  N   ALA G   1      19.667  36.279  36.486  1.00 81.42 LIG-0.07  N 
ATOM     14 H3   ALA G   1      19.742  35.575  35.946  1.00 81.42 LIG 0.28  HD
ATOM     15 H2   ALA G   1      20.201  36.170  37.190  1.00 81.42 LIG 0.28  HD
ATOM     16 H1   ALA G   1      19.903  37.016  36.047  1.00 81.42 LIG 0.28  HD
ENDBRANCH 11 13
ENDBRANCH 8 11
ENDBRANCH 6 7
BRANCH 6 17
ATOM     17  CB  ARG G   2      18.145  39.382  40.776  1.00 73.45 LIG 0.04  C 
BRANCH 17 18
ATOM     18  CG  ARG G   2      19.618  39.631  40.504  1.00 75.79 LIG 0.02  C 
BRANCH 18 19
ATOM     19  CD  ARG G   2      19.903  41.079  40.137  1.00 77.52 LIG 0.14  C 
BRANCH 19 20
ATOM     20  NE  ARG G   2      21.116  41.195  39.324  1.00 80.25 LIG-0.23  N 
ATOM     21  CZ  ARG G   2      21.509  42.288  38.663  1.00 82.01 LIG 0.67  C 
ATOM     22  NH1 ARG G   2      20.795  43.416  38.689  1.00 81.47 LIG-0.23  N 
ATOM     23  NH2 ARG G   2      22.636  42.254  37.957  1.00 84.93 LIG-0.23  N 
ATOM     24 1HH1 ARG G   2      20.062  43.451  39.138  1.00 81.47 LIG 0.17  HD
ATOM     25 2HH1 ARG G   2      21.067  44.108  38.256  1.00 81.47 LIG 0.17  HD
ATOM     26 2HH2 ARG G   2      22.897  42.953  37.528  1.00 84.93 LIG 0.17  HD
ATOM     27 1HH2 ARG G   2      23.104  41.533  37.928  1.00 84.93 LIG 0.17  HD
ATOM     28 HE   ARG G   2      21.619  40.499  39.267  1.00 80.25 LIG 0.18  HD
ENDBRANCH 19 20
ENDBRANCH 18 19
ENDBRANCH 17 18
ENDBRANCH 6 17
ENDBRANCH 3 6
ENDBRANCH 1 2
BRANCH 1 29
ATOM     29  CB  THR G   3      13.960  37.119  43.063  1.00 68.23 LIG 0.15  C 
ATOM     30  CG2 THR G   3      13.991  37.558  44.516  1.00 68.63 LIG 0.04  C 
BRANCH 29 31
ATOM     31 OG1  THR G   3      12.654  36.621  42.743  1.00 67.51 LIG-0.39  OA
ATOM     32 HG1  THR G   3      12.136  36.759  43.389  1.00 67.51 LIG 0.21  HD
ENDBRANCH 29 31
ENDBRANCH 1 29
BRANCH 1 33
ATOM     33  C   THR G   3      13.966  39.611  42.808  1.00 68.02 LIG 0.24  C 
ATOM     34  N   ALA G   4      12.664  39.866  42.926  1.00 68.86 LIG-0.35  N 
ATOM     35 H    ALA G   4      12.051  39.358  42.601  1.00 68.86 LIG 0.16  HD
ATOM     36 O    THR G   3      14.846  40.375  43.212  1.00 67.54 LIG-0.27  OA
BRANCH 34 37
ATOM     37  CA  ALA G   4      12.149  41.046  43.627  1.00 69.75 LIG 0.17  C 
ATOM     38  CB  ALA G   4      10.667  40.874  43.916  1.00 70.86 LIG 0.04  C 
BRANCH 37 39
ATOM     39  C   ALA G   4      12.913  41.349  44.922  1.00 71.43 LIG 0.24  C 
ATOM     40  N   ALA G   5      13.836  42.312  44.863  1.00 71.85 LIG-0.35  N 
ATOM     41 H    ALA G   5      14.055  42.715  44.136  1.00 71.85 LIG 0.16  HD
ATOM     42 O    ALA G   4      12.661  40.718  45.952  1.00 72.80 LIG-0.27  OA
BRANCH 40 43
ATOM     43  CA  ALA G   5      14.570  42.774  46.046  1.00 72.89 LIG 0.17  C 
ATOM     44  CB  ALA G   5      15.585  43.842  45.660  1.00 72.65 LIG 0.04  C 
BRANCH 43 45
ATOM     45  C   ALA G   5      13.631  43.302  47.136  1.00 72.87 LIG 0.24  C 
ATOM     46  N   THR G   6      13.465  42.530  48.214  1.00 71.86 LIG-0.34  N 
ATOM     47 H    THR G   6      13.840  41.763  48.314  1.00 71.86 LIG 0.16  HD
ATOM     48 O    ALA G   5      13.071  44.391  46.996  1.00 74.40 LIG-0.27  OA
BRANCH 46 49
ATOM     49  CA  THR G   6      12.609  42.933  49.344  1.00 72.17 LIG 0.20  C 
BRANCH 49 50
ATOM     50  CB  THR G   6      12.960  44.343  49.874  1.00 71.29 LIG 0.15  C 
ATOM     51  CG2 THR G   6      12.192  44.648  51.158  1.00 70.64 LIG 0.04  C 
BRANCH 50 52
ATOM     52 OG1  THR G   6      14.367  44.438  50.123  1.00 70.47 LIG-0.39  OA
ATOM     53 HG1  THR G   6      14.760  44.688  49.423  1.00 70.47 LIG 0.21  HD
ENDBRANCH 50 52
ENDBRANCH 49 50
BRANCH 49 54
ATOM     54  C   THR G   6      11.115  42.886  48.996  1.00 73.53 LIG 0.24  C 
ATOM     55  N   ALA G   7      10.771  43.247  47.756  1.00 73.25 LIG-0.35  N 
ATOM     56 H    ALA G   7      11.328  43.576  47.189  1.00 73.25 LIG 0.16  HD
ATOM     57 O    THR G   6      10.296  42.541  49.851  1.00 75.15 LIG-0.27  OA
BRANCH 55 58
ATOM     58  CA  ALA G   7       9.403  43.117  47.233  1.00 74.45 LIG 0.16  C 
ATOM     59  CB  ALA G   7       8.458  44.048  47.979  1.00 73.04 LIG 0.04  C 
BRANCH 58 60
ATOM     60  C   ALA G   7       9.367  43.419  45.735  1.00 76.13 LIG 0.22  C 
ATOM     61 O    ALA G   7      10.371  43.818  45.143  1.00 77.97 LIG-0.29  OA
ENDBRANCH 58 60
ENDBRANCH 55 58
ENDBRANCH 49 54
ENDBRANCH 46 49
ENDBRANCH 43 45
ENDBRANCH 40 43
ENDBRANCH 37 39
ENDBRANCH 34 37
ENDBRANCH 1 33
TORSDOF 22
ENDMDL
MODEL 16
USER: ADFR SOLUTION from run 98
USER: SCORE 15.769277 LL:  -3.711 LR: -15.501 RR:   0.000 FEB:  -8.938
USER: RMSD 3.125455
USER: SEED 97
USER: STATUS no improvement in best in 19 clusters for 5 generations
USER: GENES 24
USER: genes 0 Translation |==|  0.32739 0.48417 0.45029
USER: genes 1 Rotation |==|  0.49670 0.55188 0.56024 0.99363
USER: genes 2 Torsion [CB]-CA--N-[C] |==|  0.25391
USER: genes 3 Torsion [N]-C--CA-[N] |==|  0.52453
USER: genes 4 Torsion [C]-CA--N-[C] |==|  0.74494
USER: genes 5 Torsion [N]-C--CA-[N] |==|  0.27701
USER: genes 6 Torsion [C]-CA--N-[H1] |==|  0.04017
USER: genes 7 Torsion [C]-CA--CB-[CG] |==|  0.51816
USER: genes 8 Torsion [CA]-CB--CG-[CD] |==|  0.91184
USER: genes 9 Torsion [CB]-CG--CD-[NE] |==|  0.41227
USER: genes 10 Torsion [CG]-CD--NE-[CZ] |==|  0.57880
USER: genes 11 Torsion [N]-CA--CB-[OG1] |==|  0.54277
USER: genes 12 Torsion [CA]-CB--OG1-[HG1] |==|  0.75283
USER: genes 13 Torsion [N]-CA--C-[N] |==|  0.41013
USER: genes 14 Torsion [C]-N--CA-[CB] |==|  0.47102
USER: genes 15 Torsion [N]-CA--C-[N] |==|  0.97458
USER: genes 16 Torsion [C]-N--CA-[CB] |==|  0.53617
USER: genes 17 Torsion [N]-CA--C-[N] |==|  0.39451
USER: genes 18 Torsion [C]-N--CA-[CB] |==|  0.86111
USER: genes 19 Torsion [N]-CA--CB-[CG2] |==|  0.52002
USER: genes 20 Torsion [CA]-CB--OG1-[HG1] |==|  0.35038
USER: genes 21 Torsion [N]-CA--C-[N] |==|  0.89924
USER: genes 22 Torsion [C]-N--CA-[C] |==|  0.72367
USER: genes 23 Torsion [N]-CA--C-[O] |==|  0.66308
ROOT
ATOM      1  CA  THR G   3      14.254  37.869  42.156  1.00 68.23 LIG 0.20  C 
ENDROOT
BRANCH 1 2
ATOM      2  N   THR G   3      15.663  37.864  41.775  1.00 68.42 LIG-0.34  N 
ATOM      3  C   ARG G   2      16.089  37.514  40.564  1.00 70.38 LIG 0.24  C 
ATOM      4 O    ARG G   2      15.351  37.058  39.683  1.00 69.46 LIG-0.27  OA
ATOM      5 H    THR G   3      16.192  38.107  42.407  1.00 68.42 LIG 0.16  HD
BRANCH 3 6
ATOM      6  CA  ARG G   2      17.585  37.680  40.318  1.00 72.62 LIG 0.18  C 
BRANCH 6 7
ATOM      7  N   ARG G   2      17.864  37.461  38.902  1.00 74.86 LIG-0.35  N 
ATOM      8  C   ALA G   1      18.190  36.264  38.420  1.00 76.29 LIG 0.25  C 
ATOM      9 O    ALA G   1      18.454  35.290  39.133  1.00 75.70 LIG-0.27  OA
ATOM     10 H    ARG G   2      17.799  38.169  38.416  1.00 74.86 LIG 0.16  HD
BRANCH 8 11
ATOM     11  CA  ALA G   1      18.235  36.144  36.905  1.00 78.97 LIG 0.27  C 
ATOM     12  CB  ALA G   1      17.593  34.832  36.470  1.00 79.33 LIG 0.05  C 
BRANCH 11 13
ATOM     13  N   ALA G   1      19.638  36.233  36.414  1.00 81.42 LIG-0.07  N 
ATOM     14 H3   ALA G   1      19.772  37.029  36.039  1.00 81.42 LIG 0.28  HD
ATOM     15 H2   ALA G   1      19.783  35.593  35.812  1.00 81.42 LIG 0.28  HD
ATOM     16 H1   ALA G   1      20.199  36.129  37.098  1.00 81.42 LIG 0.28  HD
ENDBRANCH 11 13
ENDBRANCH 8 11
ENDBRANCH 6 7
BRANCH 6 17
ATOM     17  CB  ARG G   2      18.059  39.068  40.761  1.00 73.45 LIG 0.04  C 
BRANCH 17 18
ATOM     18  CG  ARG G   2      19.507  39.349  40.396  1.00 75.79 LIG 0.02  C 
BRANCH 18 19
ATOM     19  CD  ARG G   2      20.362  38.091  40.406  1.00 77.52 LIG 0.14  C 
BRANCH 19 20
ATOM     20  NE  ARG G   2      21.438  38.169  39.415  1.00 80.25 LIG-0.23  N 
ATOM     21  CZ  ARG G   2      22.002  37.128  38.794  1.00 82.01 LIG 0.67  C 
ATOM     22  NH1 ARG G   2      21.615  35.874  39.039  1.00 81.47 LIG-0.23  N 
ATOM     23  NH2 ARG G   2      22.976  37.343  37.914  1.00 84.93 LIG-0.23  N 
ATOM     24 1HH1 ARG G   2      20.989  35.721  39.608  1.00 81.47 LIG 0.17  HD
ATOM     25 2HH1 ARG G   2      21.992  35.220  38.627  1.00 81.47 LIG 0.17  HD
ATOM     26 2HH2 ARG G   2      23.345  36.680  37.510  1.00 84.93 LIG 0.17  HD
ATOM     27 1HH2 ARG G   2      23.238  38.146  37.750  1.00 84.93 LIG 0.17  HD
ATOM     28 HE   ARG G   2      21.731  38.953  39.214  1.00 80.25 LIG 0.18  HD
ENDBRANCH 19 20
ENDBRANCH 18 19
ENDBRANCH 17 18
ENDBRANCH 6 17
ENDBRANCH 3 6
ENDBRANCH 1 2
BRANCH 1 29
ATOM     29  CB  THR G   3      13.818  36.519  42.773  1.00 68.23 LIG 0.15  C 
ATOM     30  CG2 THR G   3      14.363  36.368  44.181  1.00 68.63 LIG 0.04  C 
BRANCH 29 31
ATOM     31 OG1  THR G   3      12.388  36.429  42.802  1.00 67.51 LIG-0.39  OA
ATOM     32 HG1  THR G   3      12.101  36.755  43.522  1.00 67.51 LIG 0.21  HD
ENDBRANCH 29 31
ENDBRANCH 1 29
BRANCH 1 33
ATOM     33  C   THR G   3      13.980  38.989  43.154  1.00 68.02 LIG 0.24  C 
ATOM     34  N   ALA G   4      12.771  39.543  43.085  1.00 68.86 LIG-0.35  N 
ATOM     35 H    ALA G   4      12.187  39.332  42.491  1.00 68.86 LIG 0.16  HD
ATOM     36 O    THR G   3      14.843  39.342  43.960  1.00 67.54 LIG-0.27  OA
BRANCH 34 37
ATOM     37  CA  ALA G   4      12.319  40.575  44.023  1.00 69.75 LIG 0.17  C 
ATOM     38  CB  ALA G   4      11.015  41.185  43.537  1.00 70.86 LIG 0.04  C 
BRANCH 37 39
ATOM     39  C   ALA G   4      12.159  40.048  45.455  1.00 71.43 LIG 0.24  C 
ATOM     40  N   ALA G   5      12.259  38.728  45.624  1.00 71.85 LIG-0.35  N 
ATOM     41 H    ALA G   5      12.347  38.172  44.974  1.00 71.85 LIG 0.16  HD
ATOM     42 O    ALA G   4      11.951  40.834  46.384  1.00 72.80 LIG-0.27  OA
BRANCH 40 43
ATOM     43  CA  ALA G   5      12.227  38.098  46.948  1.00 72.89 LIG 0.17  C 
ATOM     44  CB  ALA G   5      12.678  36.646  46.858  1.00 72.65 LIG 0.04  C 
BRANCH 43 45
ATOM     45  C   ALA G   5      13.081  38.858  47.968  1.00 72.87 LIG 0.24  C 
ATOM     46  N   THR G   6      12.602  38.942  49.212  1.00 71.86 LIG-0.34  N 
ATOM     47 H    THR G   6      11.848  38.609  49.456  1.00 71.86 LIG 0.16  HD
ATOM     48 O    ALA G   5      14.156  39.356  47.626  1.00 74.40 LIG-0.27  OA
BRANCH 46 49
ATOM     49  CA  THR G   6      13.337  39.623  50.293  1.00 72.17 LIG 0.20  C 
BRANCH 49 50
ATOM     50  CB  THR G   6      14.807  39.152  50.393  1.00 71.29 LIG 0.15  C 
ATOM     51  CG2 THR G   6      15.484  39.743  51.627  1.00 70.64 LIG 0.04  C 
BRANCH 50 52
ATOM     52 OG1  THR G   6      14.860  37.722  50.454  1.00 70.47 LIG-0.39  OA
ATOM     53 HG1  THR G   6      15.371  37.434  49.853  1.00 70.47 LIG 0.21  HD
ENDBRANCH 50 52
ENDBRANCH 49 50
BRANCH 49 54
ATOM     54  C   THR G   6      13.309  41.151  50.150  1.00 73.53 LIG 0.24  C 
ATOM     55  N   ALA G   7      13.362  41.644  48.909  1.00 73.25 LIG-0.35  N 
ATOM     56 H    ALA G   7      13.494  41.155  48.213  1.00 73.25 LIG 0.16  HD
ATOM     57 O    THR G   6      13.255  41.861  51.157  1.00 75.15 LIG-0.27  OA
BRANCH 55 58
ATOM     58  CA  ALA G   7      13.201  43.073  48.605  1.00 74.45 LIG 0.16  C 
ATOM     59  CB  ALA G   7      14.207  43.510  47.549  1.00 73.04 LIG 0.04  C 
BRANCH 58 60
ATOM     60  C   ALA G   7      11.778  43.367  48.131  1.00 76.13 LIG 0.22  C 
ATOM     61 O    ALA G   7      11.568  43.867  47.025  1.00 77.97 LIG-0.29  OA
ENDBRANCH 58 60
ENDBRANCH 55 58
ENDBRANCH 49 54
ENDBRANCH 46 49
ENDBRANCH 43 45
ENDBRANCH 40 43
ENDBRANCH 37 39
ENDBRANCH 34 37
ENDBRANCH 1 33
TORSDOF 22
ENDMDL
MODEL 17
USER: ADFR SOLUTION from run 10
USER: SCORE 14.919356 LL:  -5.452 LR: -15.502 RR:   0.000 FEB:  -8.939
USER: RMSD 1.787662
USER: SEED 76199
USER: STATUS searching
USER: GENES 24
USER: genes 0 Translation |==|  0.32225 0.48534 0.44821
USER: genes 1 Rotation |==|  0.50338 0.54778 0.55848 0.99425
USER: genes 2 Torsion [CB]-CA--N-[C] |==|  0.24564
USER: genes 3 Torsion [N]-C--CA-[N] |==|  0.53206
USER: genes 4 Torsion [C]-CA--N-[C] |==|  0.73436
USER: genes 5 Torsion [N]-C--CA-[N] |==|  0.29453
USER: genes 6 Torsion [C]-CA--N-[H1] |==|  0.70409
USER: genes 7 Torsion [C]-CA--CB-[CG] |==|  0.51483
USER: genes 8 Torsion [CA]-CB--CG-[CD] |==|  0.91865
USER: genes 9 Torsion [CB]-CG--CD-[NE] |==|  0.41347
USER: genes 10 Torsion [CG]-CD--NE-[CZ] |==|  0.57077
USER: genes 11 Torsion [N]-CA--CB-[OG1] |==|  0.56782
USER: genes 12 Torsion [CA]-CB--OG1-[HG1] |==|  0.77874
USER: genes 13 Torsion [N]-CA--C-[N] |==|  0.42913
USER: genes 14 Torsion [C]-N--CA-[CB] |==|  0.50357
USER: genes 15 Torsion [N]-CA--C-[N] |==|  0.90956
USER: genes 16 Torsion [C]-N--CA-[CB] |==|  0.48183
USER: genes 17 Torsion [N]-CA--C-[N] |==|  0.92041
USER: genes 18 Torsion [C]-N--CA-[CB] |==|  0.38793
USER: genes 19 Torsion [N]-CA--CB-[CG2] |==|  0.84708
USER: genes 20 Torsion [CA]-CB--OG1-[HG1] |==|  0.92527
USER: genes 21 Torsion [N]-CA--C-[N] |==|  0.90975
USER: genes 22 Torsion [C]-N--CA-[C] |==|  0.52382
USER: genes 23 Torsion [N]-CA--C-[O] |==|  0.15249
ROOT
ATOM      1  CA  THR G   3      14.139  37.890  42.114  1.00 68.23 LIG 0.20  C 
ENDROOT
BRANCH 1 2
ATOM      2  N   THR G   3      15.552  37.881  41.751  1.00 68.42 LIG-0.34  N 
ATOM      3  C   ARG G   2      15.995  37.505  40.554  1.00 70.38 LIG 0.24  C 
ATOM      4 O    ARG G   2      15.270  37.027  39.674  1.00 69.46 LIG-0.27  OA
ATOM      5 H    THR G   3      16.072  38.141  42.385  1.00 68.42 LIG 0.16  HD
BRANCH 3 6
ATOM      6  CA  ARG G   2      17.493  37.671  40.324  1.00 72.62 LIG 0.18  C 
BRANCH 6 7
ATOM      7  N   ARG G   2      17.783  37.485  38.905  1.00 74.86 LIG-0.35  N 
ATOM      8  C   ALA G   1      18.180  36.315  38.410  1.00 76.29 LIG 0.25  C 
ATOM      9 O    ALA G   1      18.503  35.351  39.112  1.00 75.70 LIG-0.27  OA
ATOM     10 H    ARG G   2      17.675  38.192  38.427  1.00 74.86 LIG 0.16  HD
BRANCH 8 11
ATOM     11  CA  ALA G   1      18.229  36.214  36.894  1.00 78.97 LIG 0.27  C 
ATOM     12  CB  ALA G   1      17.527  34.941  36.436  1.00 79.33 LIG 0.05  C 
BRANCH 11 13
ATOM     13  N   ALA G   1      19.638  36.240  36.413  1.00 81.42 LIG-0.07  N 
ATOM     14 H3   ALA G   1      19.760  35.594  35.813  1.00 81.42 LIG 0.28  HD
ATOM     15 H2   ALA G   1      20.189  36.114  37.101  1.00 81.42 LIG 0.28  HD
ATOM     16 H1   ALA G   1      19.810  37.029  36.038  1.00 81.42 LIG 0.28  HD
ENDBRANCH 11 13
ENDBRANCH 8 11
ENDBRANCH 6 7
BRANCH 6 17
ATOM     17  CB  ARG G   2      17.970  39.046  40.803  1.00 73.45 LIG 0.04  C 
BRANCH 17 18
ATOM     18  CG  ARG G   2      19.429  39.318  40.482  1.00 75.79 LIG 0.02  C 
BRANCH 18 19
ATOM     19  CD  ARG G   2      20.259  38.044  40.434  1.00 77.52 LIG 0.14  C 
BRANCH 19 20
ATOM     20  NE  ARG G   2      21.362  38.162  39.476  1.00 80.25 LIG-0.23  N 
ATOM     21  CZ  ARG G   2      21.957  37.144  38.847  1.00 82.01 LIG 0.67  C 
ATOM     22  NH1 ARG G   2      21.582  35.879  39.049  1.00 81.47 LIG-0.23  N 
ATOM     23  NH2 ARG G   2      22.954  37.394  38.001  1.00 84.93 LIG-0.23  N 
ATOM     24 1HH1 ARG G   2      20.942  35.703  39.597  1.00 81.47 LIG 0.17  HD
ATOM     25 2HH1 ARG G   2      21.979  35.240  38.633  1.00 81.47 LIG 0.17  HD
ATOM     26 2HH2 ARG G   2      23.343  36.746  37.591  1.00 84.93 LIG 0.17  HD
ATOM     27 1HH2 ARG G   2      23.209  38.204  37.864  1.00 84.93 LIG 0.17  HD
ATOM     28 HE   ARG G   2      21.650  38.954  39.304  1.00 80.25 LIG 0.18  HD
ENDBRANCH 19 20
ENDBRANCH 18 19
ENDBRANCH 17 18
ENDBRANCH 6 17
ENDBRANCH 3 6
ENDBRANCH 1 2
BRANCH 1 29
ATOM     29  CB  THR G   3      13.681  36.528  42.687  1.00 68.23 LIG 0.15  C 
ATOM     30  CG2 THR G   3      14.014  36.425  44.164  1.00 68.63 LIG 0.04  C 
BRANCH 29 31
ATOM     31 OG1  THR G   3      12.269  36.365  42.503  1.00 67.51 LIG-0.39  OA
ATOM     32 HG1  THR G   3      11.858  36.794  43.096  1.00 67.51 LIG 0.21  HD
ENDBRANCH 29 31
ENDBRANCH 1 29
BRANCH 1 33
ATOM     33  C   THR G   3      13.862  38.985  43.139  1.00 68.02 LIG 0.24  C 
ATOM     34  N   ALA G   4      12.616  39.454  43.163  1.00 68.86 LIG-0.35  N 
ATOM     35 H    ALA G   4      12.005  39.205  42.612  1.00 68.86 LIG 0.16  HD
ATOM     36 O    THR G   3      14.756  39.394  43.883  1.00 67.54 LIG-0.27  OA
BRANCH 34 37
ATOM     37  CA  ALA G   4      12.164  40.449  44.140  1.00 69.75 LIG 0.17  C 
ATOM     38  CB  ALA G   4      10.691  40.755  43.928  1.00 70.86 LIG 0.04  C 
BRANCH 37 39
ATOM     39  C   ALA G   4      12.414  40.015  45.590  1.00 71.43 LIG 0.24  C 
ATOM     40  N   ALA G   5      12.340  38.707  45.847  1.00 71.85 LIG-0.35  N 
ATOM     41 H    ALA G   5      12.106  38.121  45.262  1.00 71.85 LIG 0.16  HD
ATOM     42 O    ALA G   4      12.672  40.858  46.454  1.00 72.80 LIG-0.27  OA
BRANCH 40 43
ATOM     43  CA  ALA G   5      12.654  38.142  47.164  1.00 72.89 LIG 0.17  C 
ATOM     44  CB  ALA G   5      12.326  36.655  47.199  1.00 72.65 LIG 0.04  C 
BRANCH 43 45
ATOM     45  C   ALA G   5      14.118  38.374  47.555  1.00 72.87 LIG 0.24  C 
ATOM     46  N   THR G   6      15.001  38.468  46.558  1.00 71.86 LIG-0.34  N 
ATOM     47 H    THR G   6      14.792  38.392  45.727  1.00 71.86 LIG 0.16  HD
ATOM     48 O    ALA G   5      14.432  38.465  48.744  1.00 74.40 LIG-0.27  OA
BRANCH 46 49
ATOM     49  CA  THR G   6      16.433  38.715  46.798  1.00 72.17 LIG 0.20  C 
BRANCH 49 50
ATOM     50  CB  THR G   6      17.340  37.877  45.866  1.00 71.29 LIG 0.15  C 
ATOM     51  CG2 THR G   6      17.012  36.390  45.982  1.00 70.64 LIG 0.04  C 
BRANCH 50 52
ATOM     52 OG1  THR G   6      17.171  38.300  44.508  1.00 70.47 LIG-0.39  OA
ATOM     53 HG1  THR G   6      16.404  38.628  44.409  1.00 70.47 LIG 0.21  HD
ENDBRANCH 50 52
ENDBRANCH 49 50
BRANCH 49 54
ATOM     54  C   THR G   6      16.806  40.198  46.657  1.00 73.53 LIG 0.24  C 
ATOM     55  N   ALA G   7      16.115  40.913  45.764  1.00 73.25 LIG-0.35  N 
ATOM     56 H    ALA G   7      15.546  40.565  45.221  1.00 73.25 LIG 0.16  HD
ATOM     57 O    THR G   6      17.716  40.670  47.343  1.00 75.15 LIG-0.27  OA
BRANCH 55 58
ATOM     58  CA  ALA G   7      16.258  42.368  45.619  1.00 74.45 LIG 0.16  C 
ATOM     59  CB  ALA G   7      17.649  42.719  45.108  1.00 73.04 LIG 0.04  C 
BRANCH 58 60
ATOM     60  C   ALA G   7      15.194  42.923  44.672  1.00 76.13 LIG 0.22  C 
ATOM     61 O    ALA G   7      13.997  42.714  44.869  1.00 77.97 LIG-0.29  OA
ENDBRANCH 58 60
ENDBRANCH 55 58
ENDBRANCH 49 54
ENDBRANCH 46 49
ENDBRANCH 43 45
ENDBRANCH 40 43
ENDBRANCH 37 39
ENDBRANCH 34 37
ENDBRANCH 1 33
TORSDOF 22
ENDMDL
MODEL 18
USER: ADFR SOLUTION from run 37
USER: SCORE 15.875582 LL:  -3.278 LR: -15.408 RR:   0.000 FEB:  -8.846
USER: RMSD 4.677417
USER: SEED 36
USER: STATUS no improvement in best in 18 clusters for 5 generations
USER: GENES 24
USER: genes 0 Translation |==|  0.32078 0.48493 0.45682
USER: genes 1 Rotation |==|  0.52267 0.53129 0.56804 0.99384
USER: genes 2 Torsion [CB]-CA--N-[C] |==|  0.25502
USER: genes 3 Torsion [N]-C--CA-[N] |==|  0.50722
USER: genes 4 Torsion [C]-CA--N-[C] |==|  0.75024
USER: genes 5 Torsion [N]-C--CA-[N] |==|  0.27207
USER: genes 6 Torsion [C]-CA--N-[H1] |==|  0.52266
USER: genes 7 Torsion [C]-CA--CB-[CG] |==|  0.53273
USER: genes 8 Torsion [CA]-CB--CG-[CD] |==|  0.34679
USER: genes 9 Torsion [CB]-CG--CD-[NE] |==|  0.55251
USER: genes 10 Torsion [CG]-CD--NE-[CZ] |==|  0.52019
USER: genes 11 Torsion [N]-CA--CB-[OG1] |==|  0.55138
USER: genes 12 Torsion [CA]-CB--OG1-[HG1] |==|  0.75797
USER: genes 13 Torsion [N]-CA--C-[N] |==|  0.37545
USER: genes 14 Torsion [C]-N--CA-[CB] |==|  0.58387
USER: genes 15 Torsion [N]-CA--C-[N] |==|  0.78214
USER: genes 16 Torsion [C]-N--CA-[CB] |==|  0.83754
USER: genes 17 Torsion [N]-CA--C-[N] |==|  0.98882
USER: genes 18 Torsion [C]-N--CA-[CB] |==|  0.22359
USER: genes 19 Torsion [N]-CA--CB-[CG2] |==|  0.74367
USER: genes 20 Torsion [CA]-CB--OG1-[HG1] |==|  0.40057
USER: genes 21 Torsion [N]-CA--C-[N] |==|  0.00175
USER: genes 22 Torsion [C]-N--CA-[C] |==|  0.77702
USER: genes 23 Torsion [N]-CA--C-[O] |==|  0.01045
ROOT
ATOM      1  CA  THR G   3      14.106  37.883  42.289  1.00 68.23 LIG 0.20  C 
ENDROOT
BRANCH 1 2
ATOM      2  N   THR G   3      15.537  37.945  42.008  1.00 68.42 LIG-0.34  N 
ATOM      3  C   ARG G   2      16.051  37.752  40.796  1.00 70.38 LIG 0.24  C 
ATOM      4 O    ARG G   2      15.385  37.397  39.817  1.00 69.46 LIG-0.27  OA
ATOM      5 H    THR G   3      16.016  38.117  42.701  1.00 68.42 LIG 0.16  HD
BRANCH 3 6
ATOM      6  CA  ARG G   2      17.555  37.970  40.677  1.00 72.62 LIG 0.18  C 
BRANCH 6 7
ATOM      7  N   ARG G   2      17.957  37.783  39.285  1.00 74.86 LIG-0.35  N 
ATOM      8  C   ALA G   1      18.324  36.597  38.806  1.00 76.29 LIG 0.25  C 
ATOM      9 O    ALA G   1      18.526  35.607  39.516  1.00 75.70 LIG-0.27  OA
ATOM     10 H    ARG G   2      17.934  38.502  38.813  1.00 74.86 LIG 0.16  HD
BRANCH 8 11
ATOM     11  CA  ALA G   1      18.501  36.513  37.298  1.00 78.97 LIG 0.27  C 
ATOM     12  CB  ALA G   1      17.940  35.192  36.785  1.00 79.33 LIG 0.05  C 
BRANCH 11 13
ATOM     13  N   ALA G   1      19.937  36.654  36.931  1.00 81.42 LIG-0.07  N 
ATOM     14 H3   ALA G   1      20.388  35.940  37.213  1.00 81.42 LIG 0.28  HD
ATOM     15 H2   ALA G   1      20.271  37.385  37.313  1.00 81.42 LIG 0.28  HD
ATOM     16 H1   ALA G   1      20.012  36.721  36.047  1.00 81.42 LIG 0.28  HD
ENDBRANCH 11 13
ENDBRANCH 8 11
ENDBRANCH 6 7
BRANCH 6 17
ATOM     17  CB  ARG G   2      17.947  39.364  41.177  1.00 73.45 LIG 0.04  C 
BRANCH 17 18
ATOM     18  CG  ARG G   2      19.374  39.746  40.824  1.00 75.79 LIG 0.02  C 
BRANCH 18 19
ATOM     19  CD  ARG G   2      19.450  41.060  40.063  1.00 77.52 LIG 0.14  C 
BRANCH 19 20
ATOM     20  NE  ARG G   2      20.727  41.194  39.356  1.00 80.25 LIG-0.23  N 
ATOM     21  CZ  ARG G   2      21.151  42.287  38.714  1.00 82.01 LIG 0.67  C 
ATOM     22  NH1 ARG G   2      20.412  43.398  38.660  1.00 81.47 LIG-0.23  N 
ATOM     23  NH2 ARG G   2      22.335  42.270  38.109  1.00 84.93 LIG-0.23  N 
ATOM     24 1HH1 ARG G   2      19.642  43.421  39.044  1.00 81.47 LIG 0.17  HD
ATOM     25 2HH1 ARG G   2      20.705  44.089  38.242  1.00 81.47 LIG 0.17  HD
ATOM     26 2HH2 ARG G   2      22.617  42.968  37.694  1.00 84.93 LIG 0.17  HD
ATOM     27 1HH2 ARG G   2      22.821  41.560  38.132  1.00 84.93 LIG 0.17  HD
ATOM     28 HE   ARG G   2      21.248  40.509  39.354  1.00 80.25 LIG 0.18  HD
ENDBRANCH 19 20
ENDBRANCH 18 19
ENDBRANCH 17 18
ENDBRANCH 6 17
ENDBRANCH 3 6
ENDBRANCH 1 2
BRANCH 1 29
ATOM     29  CB  THR G   3      13.662  36.463  42.714  1.00 68.23 LIG 0.15  C 
ATOM     30  CG2 THR G   3      14.048  36.187  44.155  1.00 68.63 LIG 0.04  C 
BRANCH 29 31
ATOM     31 OG1  THR G   3      12.243  36.324  42.564  1.00 67.51 LIG-0.39  OA
ATOM     32 HG1  THR G   3      11.860  36.589  43.264  1.00 67.51 LIG 0.21  HD
ENDBRANCH 29 31
ENDBRANCH 1 29
BRANCH 1 33
ATOM     33  C   THR G   3      13.738  38.875  43.387  1.00 68.02 LIG 0.24  C 
ATOM     34  N   ALA G   4      12.645  39.603  43.167  1.00 68.86 LIG-0.35  N 
ATOM     35 H    ALA G   4      12.191  39.567  42.438  1.00 68.86 LIG 0.16  HD
ATOM     36 O    THR G   3      14.429  38.978  44.402  1.00 67.54 LIG-0.27  OA
BRANCH 34 37
ATOM     37  CA  ALA G   4      12.108  40.543  44.155  1.00 69.75 LIG 0.17  C 
ATOM     38  CB  ALA G   4      10.599  40.648  44.009  1.00 70.86 LIG 0.04  C 
BRANCH 37 39
ATOM     39  C   ALA G   4      12.479  40.168  45.595  1.00 71.43 LIG 0.24  C 
ATOM     40  N   ALA G   5      11.771  39.188  46.162  1.00 71.85 LIG-0.35  N 
ATOM     41 H    ALA G   5      11.097  38.811  45.784  1.00 71.85 LIG 0.16  HD
ATOM     42 O    ALA G   4      13.394  40.761  46.174  1.00 72.80 LIG-0.27  OA
BRANCH 40 43
ATOM     43  CA  ALA G   5      12.082  38.659  47.494  1.00 72.89 LIG 0.17  C 
ATOM     44  CB  ALA G   5      13.506  38.121  47.536  1.00 72.65 LIG 0.04  C 
BRANCH 43 45
ATOM     45  C   ALA G   5      11.878  39.709  48.592  1.00 72.87 LIG 0.24  C 
ATOM     46  N   THR G   6      11.541  40.939  48.195  1.00 71.86 LIG-0.34  N 
ATOM     47 H    THR G   6      11.450  41.166  47.370  1.00 71.86 LIG 0.16  HD
ATOM     48 O    ALA G   5      12.024  39.401  49.777  1.00 74.40 LIG-0.27  OA
BRANCH 46 49
ATOM     49  CA  THR G   6      11.291  42.032  49.150  1.00 72.17 LIG 0.20  C 
BRANCH 49 50
ATOM     50  CB  THR G   6      12.600  42.679  49.660  1.00 71.29 LIG 0.15  C 
ATOM     51  CG2 THR G   6      13.071  42.010  50.949  1.00 70.64 LIG 0.04  C 
BRANCH 50 52
ATOM     52 OG1  THR G   6      13.622  42.570  48.662  1.00 70.47 LIG-0.39  OA
ATOM     53 HG1  THR G   6      14.102  43.259  48.676  1.00 70.47 LIG 0.21  HD
ENDBRANCH 50 52
ENDBRANCH 49 50
BRANCH 49 54
ATOM     54  C   THR G   6      10.385  43.127  48.568  1.00 73.53 LIG 0.24  C 
ATOM     55  N   ALA G   7       9.945  42.947  47.319  1.00 73.25 LIG-0.35  N 
ATOM     56 H    ALA G   7      10.211  42.303  46.814  1.00 73.25 LIG 0.16  HD
ATOM     57 O    THR G   6      10.109  44.120  49.245  1.00 75.15 LIG-0.27  OA
BRANCH 55 58
ATOM     58  CA  ALA G   7       8.961  43.831  46.680  1.00 74.45 LIG 0.16  C 
ATOM     59  CB  ALA G   7       9.067  43.739  45.164  1.00 73.04 LIG 0.04  C 
BRANCH 58 60
ATOM     60  C   ALA G   7       7.544  43.478  47.131  1.00 76.13 LIG 0.22  C 
ATOM     61 O    ALA G   7       7.346  42.606  47.978  1.00 77.97 LIG-0.29  OA
ENDBRANCH 58 60
ENDBRANCH 55 58
ENDBRANCH 49 54
ENDBRANCH 46 49
ENDBRANCH 43 45
ENDBRANCH 40 43
ENDBRANCH 37 39
ENDBRANCH 34 37
ENDBRANCH 1 33
TORSDOF 22
ENDMDL
MODEL 19
USER: ADFR SOLUTION from run 106
USER: SCORE 16.109463 LL:  -4.524 LR: -15.361 RR:   0.000 FEB:  -8.798
USER: RMSD 2.714812
USER: SEED 105
USER: STATUS no improvement in best in 14 clusters for 5 generations
USER: GENES 24
USER: genes 0 Translation |==|  0.31707 0.48485 0.45880
USER: genes 1 Rotation |==|  0.47366 0.55717 0.54991 0.99350
USER: genes 2 Torsion [CB]-CA--N-[C] |==|  0.27169
USER: genes 3 Torsion [N]-C--CA-[N] |==|  0.55000
USER: genes 4 Torsion [C]-CA--N-[C] |==|  0.74057
USER: genes 5 Torsion [N]-C--CA-[N] |==|  0.11358
USER: genes 6 Torsion [C]-CA--N-[H1] |==|  0.15037
USER: genes 7 Torsion [C]-CA--CB-[CG] |==|  0.56091
USER: genes 8 Torsion [CA]-CB--CG-[CD] |==|  0.81660
USER: genes 9 Torsion [CB]-CG--CD-[NE] |==|  0.41300
USER: genes 10 Torsion [CG]-CD--NE-[CZ] |==|  0.65434
USER: genes 11 Torsion [N]-CA--CB-[OG1] |==|  0.62641
USER: genes 12 Torsion [CA]-CB--OG1-[HG1] |==|  0.69044
USER: genes 13 Torsion [N]-CA--C-[N] |==|  0.42611
USER: genes 14 Torsion [C]-N--CA-[CB] |==|  0.53336
USER: genes 15 Torsion [N]-CA--C-[N] |==|  0.27736
USER: genes 16 Torsion [C]-N--CA-[CB] |==|  0.85516
USER: genes 17 Torsion [N]-CA--C-[N] |==|  0.81120
USER: genes 18 Torsion [C]-N--CA-[CB] |==|  0.53397
USER: genes 19 Torsion [N]-CA--CB-[CG2] |==|  0.00655
USER: genes 20 Torsion [CA]-CB--OG1-[HG1] |==|  0.41635
USER: genes 21 Torsion [N]-CA--C-[N] |==|  0.92632
USER: genes 22 Torsion [C]-N--CA-[C] |==|  0.60027
USER: genes 23 Torsion [N]-CA--C-[O] |==|  0.04008
ROOT
ATOM      1  CA  THR G   3      14.022  37.881  42.329  1.00 68.23 LIG 0.20  C 
ENDROOT
BRANCH 1 2
ATOM      2  N   THR G   3      15.426  37.794  41.938  1.00 68.42 LIG-0.34  N 
ATOM      3  C   ARG G   2      15.822  37.431  40.721  1.00 70.38 LIG 0.24  C 
ATOM      4 O    ARG G   2      15.053  37.029  39.840  1.00 69.46 LIG-0.27  OA
ATOM      5 H    THR G   3      15.972  37.999  42.569  1.00 68.42 LIG 0.16  HD
BRANCH 3 6
ATOM      6  CA  ARG G   2      17.324  37.508  40.467  1.00 72.62 LIG 0.18  C 
BRANCH 6 7
ATOM      7  N   ARG G   2      17.567  37.506  39.028  1.00 74.86 LIG-0.35  N 
ATOM      8  C   ALA G   1      17.811  36.386  38.352  1.00 76.29 LIG 0.25  C 
ATOM      9 O    ALA G   1      18.026  35.296  38.891  1.00 75.70 LIG-0.27  OA
ATOM     10 H    ARG G   2      17.538  38.285  38.664  1.00 74.86 LIG 0.16  HD
BRANCH 8 11
ATOM     11  CA  ALA G   1      17.824  36.511  36.836  1.00 78.97 LIG 0.27  C 
ATOM     12  CB  ALA G   1      18.505  35.293  36.222  1.00 79.33 LIG 0.05  C 
BRANCH 11 13
ATOM     13  N   ALA G   1      18.513  37.764  36.421  1.00 81.42 LIG-0.07  N 
ATOM     14 H3   ALA G   1      18.040  38.468  36.692  1.00 81.42 LIG 0.28  HD
ATOM     15 H2   ALA G   1      18.588  37.782  35.534  1.00 81.42 LIG 0.28  HD
ATOM     16 H1   ALA G   1      19.324  37.794  36.787  1.00 81.42 LIG 0.28  HD
ENDBRANCH 11 13
ENDBRANCH 8 11
ENDBRANCH 6 7
BRANCH 6 17
ATOM     17  CB  ARG G   2      17.924  38.757  41.121  1.00 73.45 LIG 0.04  C 
BRANCH 17 18
ATOM     18  CG  ARG G   2      19.242  39.183  40.498  1.00 75.79 LIG 0.02  C 
BRANCH 18 19
ATOM     19  CD  ARG G   2      20.349  38.165  40.730  1.00 77.52 LIG 0.14  C 
BRANCH 19 20
ATOM     20  NE  ARG G   2      21.303  38.153  39.618  1.00 80.25 LIG-0.23  N 
ATOM     21  CZ  ARG G   2      21.644  37.081  38.897  1.00 82.01 LIG 0.67  C 
ATOM     22  NH1 ARG G   2      21.121  35.877  39.141  1.00 81.47 LIG-0.23  N 
ATOM     23  NH2 ARG G   2      22.531  37.211  37.913  1.00 84.93 LIG-0.23  N 
ATOM     24 1HH1 ARG G   2      20.549  35.778  39.777  1.00 81.47 LIG 0.17  HD
ATOM     25 2HH1 ARG G   2      21.355  35.201  38.664  1.00 81.47 LIG 0.17  HD
ATOM     26 2HH2 ARG G   2      22.756  36.527  37.443  1.00 84.93 LIG 0.17  HD
ATOM     27 1HH2 ARG G   2      22.879  37.980  37.747  1.00 84.93 LIG 0.17  HD
ATOM     28 HE   ARG G   2      21.676  38.900  39.412  1.00 80.25 LIG 0.18  HD
ENDBRANCH 19 20
ENDBRANCH 18 19
ENDBRANCH 17 18
ENDBRANCH 6 17
ENDBRANCH 3 6
ENDBRANCH 1 2
BRANCH 1 29
ATOM     29  CB  THR G   3      13.551  36.612  43.078  1.00 68.23 LIG 0.15  C 
ATOM     30  CG2 THR G   3      13.436  36.877  44.567  1.00 68.63 LIG 0.04  C 
BRANCH 29 31
ATOM     31 OG1  THR G   3      12.282  36.182  42.570  1.00 67.51 LIG-0.39  OA
ATOM     32 HG1  THR G   3      11.692  36.298  43.156  1.00 67.51 LIG 0.21  HD
ENDBRANCH 29 31
ENDBRANCH 1 29
BRANCH 1 33
ATOM     33  C   THR G   3      13.794  39.102  43.214  1.00 68.02 LIG 0.24  C 
ATOM     34  N   ALA G   4      12.564  39.613  43.190  1.00 68.86 LIG-0.35  N 
ATOM     35 H    ALA G   4      11.939  39.319  42.677  1.00 68.86 LIG 0.16  HD
ATOM     36 O    THR G   3      14.709  39.567  43.896  1.00 67.54 LIG-0.27  OA
BRANCH 34 37
ATOM     37  CA  ALA G   4      12.157  40.734  44.042  1.00 69.75 LIG 0.17  C 
ATOM     38  CB  ALA G   4      10.646  40.893  44.006  1.00 70.86 LIG 0.04  C 
BRANCH 37 39
ATOM     39  C   ALA G   4      12.642  40.588  45.490  1.00 71.43 LIG 0.24  C 
ATOM     40  N   ALA G   5      13.733  41.277  45.829  1.00 71.85 LIG-0.35  N 
ATOM     41 H    ALA G   5      14.196  41.739  45.270  1.00 71.85 LIG 0.16  HD
ATOM     42 O    ALA G   4      12.030  39.862  46.278  1.00 72.80 LIG-0.27  OA
BRANCH 40 43
ATOM     43  CA  ALA G   5      14.250  41.310  47.202  1.00 72.89 LIG 0.17  C 
ATOM     44  CB  ALA G   5      13.147  41.701  48.177  1.00 72.65 LIG 0.04  C 
BRANCH 43 45
ATOM     45  C   ALA G   5      14.875  39.973  47.614  1.00 72.87 LIG 0.24  C 
ATOM     46  N   THR G   6      14.045  38.936  47.751  1.00 71.86 LIG-0.34  N 
ATOM     47 H    THR G   6      13.195  38.987  47.635  1.00 71.86 LIG 0.16  HD
ATOM     48 O    ALA G   5      16.091  39.892  47.803  1.00 74.40 LIG-0.27  OA
BRANCH 46 49
ATOM     49  CA  THR G   6      14.522  37.591  48.118  1.00 72.17 LIG 0.20  C 
BRANCH 49 50
ATOM     50  CB  THR G   6      13.437  36.507  47.921  1.00 71.29 LIG 0.15  C 
ATOM     51  CG2 THR G   6      12.163  37.113  47.338  1.00 70.64 LIG 0.04  C 
BRANCH 50 52
ATOM     52 OG1  THR G   6      13.923  35.480  47.048  1.00 70.47 LIG-0.39  OA
ATOM     53 HG1  THR G   6      13.564  34.748  47.249  1.00 70.47 LIG 0.21  HD
ENDBRANCH 50 52
ENDBRANCH 49 50
BRANCH 49 54
ATOM     54  C   THR G   6      15.784  37.183  47.344  1.00 73.53 LIG 0.24  C 
ATOM     55  N   ALA G   7      15.967  37.747  46.145  1.00 73.25 LIG-0.35  N 
ATOM     56 H    ALA G   7      15.380  38.248  45.766  1.00 73.25 LIG 0.16  HD
ATOM     57 O    THR G   6      16.563  36.360  47.829  1.00 75.15 LIG-0.27  OA
BRANCH 55 58
ATOM     58  CA  ALA G   7      17.191  37.566  45.353  1.00 74.45 LIG 0.16  C 
ATOM     59  CB  ALA G   7      17.026  36.414  44.372  1.00 73.04 LIG 0.04  C 
BRANCH 58 60
ATOM     60  C   ALA G   7      17.542  38.851  44.601  1.00 76.13 LIG 0.22  C 
ATOM     61 O    ALA G   7      17.010  39.923  44.893  1.00 77.97 LIG-0.29  OA
ENDBRANCH 58 60
ENDBRANCH 55 58
ENDBRANCH 49 54
ENDBRANCH 46 49
ENDBRANCH 43 45
ENDBRANCH 40 43
ENDBRANCH 37 39
ENDBRANCH 34 37
ENDBRANCH 1 33
TORSDOF 22
ENDMDL
MODEL 20
USER: ADFR SOLUTION from run 107
USER: SCORE 15.214160 LL:  -3.635 LR: -15.353 RR:   0.000 FEB:  -8.791
USER: RMSD 3.300055
USER: SEED 106
USER: STATUS searching
USER: GENES 24
USER: genes 0 Translation |==|  0.32204 0.48086 0.44599
USER: genes 1 Rotation |==|  0.53136 0.54116 0.55386 0.99439
USER: genes 2 Torsion [CB]-CA--N-[C] |==|  0.23345
USER: genes 3 Torsion [N]-C--CA-[N] |==|  0.52492
USER: genes 4 Torsion [C]-CA--N-[C] |==|  0.74656
USER: genes 5 Torsion [N]-C--CA-[N] |==|  0.27355
USER: genes 6 Torsion [C]-CA--N-[H1] |==|  0.03145
USER: genes 7 Torsion [C]-CA--CB-[CG] |==|  0.52372
USER: genes 8 Torsion [CA]-CB--CG-[CD] |==|  0.90727
USER: genes 9 Torsion [CB]-CG--CD-[NE] |==|  0.41801
USER: genes 10 Torsion [CG]-CD--NE-[CZ] |==|  0.57866
USER: genes 11 Torsion [N]-CA--CB-[OG1] |==|  0.52571
USER: genes 12 Torsion [CA]-CB--OG1-[HG1] |==|  0.75245
USER: genes 13 Torsion [N]-CA--C-[N] |==|  0.36882
USER: genes 14 Torsion [C]-N--CA-[CB] |==|  0.53889
USER: genes 15 Torsion [N]-CA--C-[N] |==|  0.92838
USER: genes 16 Torsion [C]-N--CA-[CB] |==|  0.52982
USER: genes 17 Torsion [N]-CA--C-[N] |==|  0.75565
USER: genes 18 Torsion [C]-N--CA-[CB] |==|  0.84444
USER: genes 19 Torsion [N]-CA--CB-[CG2] |==|  0.91306
USER: genes 20 Torsion [CA]-CB--OG1-[HG1] |==|  0.84443
USER: genes 21 Torsion [N]-CA--C-[N] |==|  0.93333
USER: genes 22 Torsion [C]-N--CA-[C] |==|  0.71986
USER: genes 23 Torsion [N]-CA--C-[O] |==|  0.17003
ROOT
ATOM      1  CA  THR G   3      14.134  37.809  42.069  1.00 68.23 LIG 0.20  C 
ENDROOT
BRANCH 1 2
ATOM      2  N   THR G   3      15.552  37.799  41.724  1.00 68.42 LIG-0.34  N 
ATOM      3  C   ARG G   2      16.006  37.463  40.519  1.00 70.38 LIG 0.24  C 
ATOM      4 O    ARG G   2      15.288  37.026  39.612  1.00 69.46 LIG-0.27  OA
ATOM      5 H    THR G   3      16.067  38.029  42.373  1.00 68.42 LIG 0.16  HD
BRANCH 3 6
ATOM      6  CA  ARG G   2      17.509  37.622  40.313  1.00 72.62 LIG 0.18  C 
BRANCH 6 7
ATOM      7  N   ARG G   2      17.822  37.425  38.901  1.00 74.86 LIG-0.35  N 
ATOM      8  C   ALA G   1      18.139  36.231  38.405  1.00 76.29 LIG 0.25  C 
ATOM      9 O    ALA G   1      18.367  35.240  39.105  1.00 75.70 LIG-0.27  OA
ATOM     10 H    ARG G   2      17.783  38.143  38.428  1.00 74.86 LIG 0.16  HD
BRANCH 8 11
ATOM     11  CA  ALA G   1      18.223  36.140  36.889  1.00 78.97 LIG 0.27  C 
ATOM     12  CB  ALA G   1      17.598  34.834  36.414  1.00 79.33 LIG 0.05  C 
BRANCH 11 13
ATOM     13  N   ALA G   1      19.637  36.243  36.436  1.00 81.42 LIG-0.07  N 
ATOM     14 H3   ALA G   1      19.766  37.029  36.038  1.00 81.42 LIG 0.28  HD
ATOM     15 H2   ALA G   1      19.813  35.587  35.860  1.00 81.42 LIG 0.28  HD
ATOM     16 H1   ALA G   1      20.180  36.173  37.138  1.00 81.42 LIG 0.28  HD
ENDBRANCH 11 13
ENDBRANCH 8 11
ENDBRANCH 6 7
BRANCH 6 17
ATOM     17  CB  ARG G   2      17.983  38.997  40.792  1.00 73.45 LIG 0.04  C 
BRANCH 17 18
ATOM     18  CG  ARG G   2      19.427  39.292  40.426  1.00 75.79 LIG 0.02  C 
BRANCH 18 19
ATOM     19  CD  ARG G   2      20.294  38.042  40.434  1.00 77.52 LIG 0.14  C 
BRANCH 19 20
ATOM     20  NE  ARG G   2      21.397  38.152  39.476  1.00 80.25 LIG-0.23  N 
ATOM     21  CZ  ARG G   2      21.990  37.130  38.851  1.00 82.01 LIG 0.67  C 
ATOM     22  NH1 ARG G   2      21.609  35.867  39.059  1.00 81.47 LIG-0.23  N 
ATOM     23  NH2 ARG G   2      22.987  37.373  38.005  1.00 84.93 LIG-0.23  N 
ATOM     24 1HH1 ARG G   2      20.969  35.696  39.607  1.00 81.47 LIG 0.17  HD
ATOM     25 2HH1 ARG G   2      22.005  35.225  38.645  1.00 81.47 LIG 0.17  HD
ATOM     26 2HH2 ARG G   2      23.375  36.722  37.598  1.00 84.93 LIG 0.17  HD
ATOM     27 1HH2 ARG G   2      23.245  38.182  37.864  1.00 84.93 LIG 0.17  HD
ATOM     28 HE   ARG G   2      21.688  38.943  39.301  1.00 80.25 LIG 0.18  HD
ENDBRANCH 19 20
ENDBRANCH 18 19
ENDBRANCH 17 18
ENDBRANCH 6 17
ENDBRANCH 3 6
ENDBRANCH 1 2
BRANCH 1 29
ATOM     29  CB  THR G   3      13.629  36.406  42.481  1.00 68.23 LIG 0.15  C 
ATOM     30  CG2 THR G   3      14.248  35.976  43.798  1.00 68.63 LIG 0.04  C 
BRANCH 29 31
ATOM     31 OG1  THR G   3      12.201  36.411  42.603  1.00 67.51 LIG-0.39  OA
ATOM     32 HG1  THR G   3      11.988  36.624  43.387  1.00 67.51 LIG 0.21  HD
ENDBRANCH 29 31
ENDBRANCH 1 29
BRANCH 1 33
ATOM     33  C   THR G   3      13.874  38.791  43.207  1.00 68.02 LIG 0.24  C 
ATOM     34  N   ALA G   4      12.845  39.619  43.034  1.00 68.86 LIG-0.35  N 
ATOM     35 H    ALA G   4      12.377  39.648  42.313  1.00 68.86 LIG 0.16  HD
ATOM     36 O    THR G   3      14.589  38.799  44.211  1.00 67.54 LIG-0.27  OA
BRANCH 34 37
ATOM     37  CA  ALA G   4      12.410  40.567  44.063  1.00 69.75 LIG 0.17  C 
ATOM     38  CB  ALA G   4      11.034  41.113  43.721  1.00 70.86 LIG 0.04  C 
BRANCH 37 39
ATOM     39  C   ALA G   4      12.405  39.956  45.470  1.00 71.43 LIG 0.24  C 
ATOM     40  N   ALA G   5      12.256  38.632  45.550  1.00 71.85 LIG-0.35  N 
ATOM     41 H    ALA G   5      12.107  38.130  44.868  1.00 71.85 LIG 0.16  HD
ATOM     42 O    ALA G   4      12.537  40.681  46.461  1.00 72.80 LIG-0.27  OA
BRANCH 40 43
ATOM     43  CA  ALA G   5      12.333  37.904  46.821  1.00 72.89 LIG 0.17  C 
ATOM     44  CB  ALA G   5      12.390  36.403  46.574  1.00 72.65 LIG 0.04  C 
BRANCH 43 45
ATOM     45  C   ALA G   5      13.529  38.350  47.669  1.00 72.87 LIG 0.24  C 
ATOM     46  N   THR G   6      14.688  37.720  47.455  1.00 71.86 LIG-0.34  N 
ATOM     47 H    THR G   6      14.786  37.082  46.887  1.00 71.86 LIG 0.16  HD
ATOM     48 O    ALA G   5      13.397  39.251  48.500  1.00 74.40 LIG-0.27  OA
BRANCH 46 49
ATOM     49  CA  THR G   6      15.919  38.070  48.184  1.00 72.17 LIG 0.20  C 
BRANCH 49 50
ATOM     50  CB  THR G   6      16.286  39.565  48.035  1.00 71.29 LIG 0.15  C 
ATOM     51  CG2 THR G   6      15.835  40.104  46.680  1.00 70.64 LIG 0.04  C 
BRANCH 50 52
ATOM     52 OG1  THR G   6      15.674  40.327  49.082  1.00 70.47 LIG-0.39  OA
ATOM     53 HG1  THR G   6      14.843  40.199  49.073  1.00 70.47 LIG 0.21  HD
ENDBRANCH 50 52
ENDBRANCH 49 50
BRANCH 49 54
ATOM     54  C   THR G   6      15.838  37.721  49.677  1.00 73.53 LIG 0.24  C 
ATOM     55  N   ALA G   7      14.616  37.641  50.213  1.00 73.25 LIG-0.35  N 
ATOM     56 H    ALA G   7      13.899  37.854  49.788  1.00 73.25 LIG 0.16  HD
ATOM     57 O    THR G   6      16.873  37.544  50.324  1.00 75.15 LIG-0.27  OA
BRANCH 55 58
ATOM     58  CA  ALA G   7      14.372  37.178  51.587  1.00 74.45 LIG 0.16  C 
ATOM     59  CB  ALA G   7      13.343  38.065  52.273  1.00 73.04 LIG 0.04  C 
BRANCH 58 60
ATOM     60  C   ALA G   7      13.900  35.724  51.591  1.00 76.13 LIG 0.22  C 
ATOM     61 O    ALA G   7      14.613  34.823  51.145  1.00 77.97 LIG-0.29  OA
ENDBRANCH 58 60
ENDBRANCH 55 58
ENDBRANCH 49 54
ENDBRANCH 46 49
ENDBRANCH 43 45
ENDBRANCH 40 43
ENDBRANCH 37 39
ENDBRANCH 34 37
ENDBRANCH 1 33
TORSDOF 22
ENDMDL
MODEL 21
USER: ADFR SOLUTION from run 139
USER: SCORE 16.010375 LL:  -3.353 LR: -15.325 RR:   0.000 FEB:  -8.762
USER: RMSD 4.108239
USER: SEED 138
USER: STATUS searching
USER: GENES 24
USER: genes 0 Translation |==|  0.33133 0.44069 0.46017
USER: genes 1 Rotation |==|  0.72375 0.53782 0.53165 0.94442
USER: genes 2 Torsion [CB]-CA--N-[C] |==|  0.17279
USER: genes 3 Torsion [N]-C--CA-[N] |==|  0.45774
USER: genes 4 Torsion [C]-CA--N-[C] |==|  0.74568
USER: genes 5 Torsion [N]-C--CA-[N] |==|  0.28813
USER: genes 6 Torsion [C]-CA--N-[H1] |==|  0.05016
USER: genes 7 Torsion [C]-CA--CB-[CG] |==|  0.50899
USER: genes 8 Torsion [CA]-CB--CG-[CD] |==|  0.92511
USER: genes 9 Torsion [CB]-CG--CD-[NE] |==|  0.40311
USER: genes 10 Torsion [CG]-CD--NE-[CZ] |==|  0.57155
USER: genes 11 Torsion [N]-CA--CB-[OG1] |==|  0.53835
USER: genes 12 Torsion [CA]-CB--OG1-[HG1] |==|  0.81889
USER: genes 13 Torsion [N]-CA--C-[N] |==|  0.48505
USER: genes 14 Torsion [C]-N--CA-[CB] |==|  0.83884
USER: genes 15 Torsion [N]-CA--C-[N] |==|  0.34871
USER: genes 16 Torsion [C]-N--CA-[CB] |==|  0.88224
USER: genes 17 Torsion [N]-CA--C-[N] |==|  0.90055
USER: genes 18 Torsion [C]-N--CA-[CB] |==|  0.50782
USER: genes 19 Torsion [N]-CA--CB-[CG2] |==|  0.86928
USER: genes 20 Torsion [CA]-CB--OG1-[HG1] |==|  0.89810
USER: genes 21 Torsion [N]-CA--C-[N] |==|  0.93802
USER: genes 22 Torsion [C]-N--CA-[C] |==|  0.70109
USER: genes 23 Torsion [N]-CA--C-[O] |==|  0.96671
ROOT
ATOM      1  CA  THR G   3      14.343  37.086  42.356  1.00 68.23 LIG 0.20  C 
ENDROOT
BRANCH 1 2
ATOM      2  N   THR G   3      15.729  37.205  41.916  1.00 68.42 LIG-0.34  N 
ATOM      3  C   ARG G   2      16.077  37.390  40.645  1.00 70.38 LIG 0.24  C 
ATOM      4 O    ARG G   2      15.274  37.371  39.704  1.00 69.46 LIG-0.27  OA
ATOM      5 H    THR G   3      16.301  37.143  42.555  1.00 68.42 LIG 0.16  HD
BRANCH 3 6
ATOM      6  CA  ARG G   2      17.566  37.604  40.393  1.00 72.62 LIG 0.18  C 
BRANCH 6 7
ATOM      7  N   ARG G   2      17.841  37.430  38.970  1.00 74.86 LIG-0.35  N 
ATOM      8  C   ALA G   1      18.190  36.254  38.454  1.00 76.29 LIG 0.25  C 
ATOM      9 O    ALA G   1      18.481  35.268  39.138  1.00 75.70 LIG-0.27  OA
ATOM     10 H    ARG G   2      17.757  38.148  38.504  1.00 74.86 LIG 0.16  HD
BRANCH 8 11
ATOM     11  CA  ALA G   1      18.228  36.176  36.936  1.00 78.97 LIG 0.27  C 
ATOM     12  CB  ALA G   1      17.525  34.908  36.465  1.00 79.33 LIG 0.05  C 
BRANCH 11 13
ATOM     13  N   ALA G   1      19.633  36.213  36.445  1.00 81.42 LIG-0.07  N 
ATOM     14 H3   ALA G   1      19.821  37.029  36.140  1.00 81.42 LIG 0.28  HD
ATOM     15 H2   ALA G   1      19.734  35.621  35.788  1.00 81.42 LIG 0.28  HD
ATOM     16 H1   ALA G   1      20.187  36.012  37.112  1.00 81.42 LIG 0.28  HD
ENDBRANCH 11 13
ENDBRANCH 8 11
ENDBRANCH 6 7
BRANCH 6 17
ATOM     17  CB  ARG G   2      18.006  38.992  40.869  1.00 73.45 LIG 0.04  C 
BRANCH 17 18
ATOM     18  CG  ARG G   2      19.465  39.291  40.573  1.00 75.79 LIG 0.02  C 
BRANCH 18 19
ATOM     19  CD  ARG G   2      20.311  38.029  40.496  1.00 77.52 LIG 0.14  C 
BRANCH 19 20
ATOM     20  NE  ARG G   2      21.369  38.157  39.491  1.00 80.25 LIG-0.23  N 
ATOM     21  CZ  ARG G   2      21.948  37.145  38.837  1.00 82.01 LIG 0.67  C 
ATOM     22  NH1 ARG G   2      21.596  35.876  39.058  1.00 81.47 LIG-0.23  N 
ATOM     23  NH2 ARG G   2      22.904  37.404  37.948  1.00 84.93 LIG-0.23  N 
ATOM     24 1HH1 ARG G   2      20.982  35.694  39.633  1.00 81.47 LIG 0.17  HD
ATOM     25 2HH1 ARG G   2      21.982  35.241  38.625  1.00 81.47 LIG 0.17  HD
ATOM     26 2HH2 ARG G   2      23.282  36.760  37.523  1.00 84.93 LIG 0.17  HD
ATOM     27 1HH2 ARG G   2      23.143  38.217  37.799  1.00 84.93 LIG 0.17  HD
ATOM     28 HE   ARG G   2      21.640  38.952  39.305  1.00 80.25 LIG 0.18  HD
ENDBRANCH 19 20
ENDBRANCH 18 19
ENDBRANCH 17 18
ENDBRANCH 6 17
ENDBRANCH 3 6
ENDBRANCH 1 2
BRANCH 1 29
ATOM     29  CB  THR G   3      13.641  35.858  41.730  1.00 68.23 LIG 0.15  C 
ATOM     30  CG2 THR G   3      14.152  34.571  42.351  1.00 68.63 LIG 0.04  C 
BRANCH 29 31
ATOM     31 OG1  THR G   3      12.223  35.950  41.920  1.00 67.51 LIG-0.39  OA
ATOM     32 HG1  THR G   3      12.047  35.904  42.740  1.00 67.51 LIG 0.21  HD
ENDBRANCH 29 31
ENDBRANCH 1 29
BRANCH 1 33
ATOM     33  C   THR G   3      14.278  36.982  43.876  1.00 68.02 LIG 0.24  C 
ATOM     34  N   ALA G   4      13.055  36.982  44.405  1.00 68.86 LIG-0.35  N 
ATOM     35 H    ALA G   4      12.339  37.084  43.940  1.00 68.86 LIG 0.16  HD
ATOM     36 O    THR G   3      15.308  36.908  44.549  1.00 67.54 LIG-0.27  OA
BRANCH 34 37
ATOM     37  CA  ALA G   4      12.813  36.808  45.840  1.00 69.75 LIG 0.17  C 
ATOM     38  CB  ALA G   4      13.404  35.490  46.312  1.00 70.86 LIG 0.04  C 
BRANCH 37 39
ATOM     39  C   ALA G   4      13.361  37.968  46.680  1.00 71.43 LIG 0.24  C 
ATOM     40  N   ALA G   5      12.499  38.575  47.499  1.00 71.85 LIG-0.35  N 
ATOM     41 H    ALA G   5      11.661  38.387  47.529  1.00 71.85 LIG 0.16  HD
ATOM     42 O    ALA G   4      14.547  38.298  46.583  1.00 72.80 LIG-0.27  OA
BRANCH 40 43
ATOM     43  CA  ALA G   5      12.908  39.631  48.432  1.00 72.89 LIG 0.17  C 
ATOM     44  CB  ALA G   5      14.224  39.267  49.106  1.00 72.65 LIG 0.04  C 
BRANCH 43 45
ATOM     45  C   ALA G   5      13.024  40.995  47.743  1.00 72.87 LIG 0.24  C 
ATOM     46  N   THR G   6      13.477  41.000  46.486  1.00 71.86 LIG-0.34  N 
ATOM     47 H    THR G   6      13.715  40.290  46.063  1.00 71.86 LIG 0.16  HD
ATOM     48 O    ALA G   5      12.705  42.022  48.347  1.00 74.40 LIG-0.27  OA
BRANCH 46 49
ATOM     49  CA  THR G   6      13.611  42.241  45.704  1.00 72.17 LIG 0.20  C 
BRANCH 49 50
ATOM     50  CB  THR G   6      14.090  41.976  44.257  1.00 71.29 LIG 0.15  C 
ATOM     51  CG2 THR G   6      15.280  41.019  44.245  1.00 70.64 LIG 0.04  C 
BRANCH 50 52
ATOM     52 OG1  THR G   6      13.021  41.423  43.481  1.00 70.47 LIG-0.39  OA
ATOM     53 HG1  THR G   6      12.565  40.905  43.960  1.00 70.47 LIG 0.21  HD
ENDBRANCH 50 52
ENDBRANCH 49 50
BRANCH 49 54
ATOM     54  C   THR G   6      12.308  43.051  45.659  1.00 73.53 LIG 0.24  C 
ATOM     55  N   ALA G   7      11.172  42.384  45.889  1.00 73.25 LIG-0.35  N 
ATOM     56 H    ALA G   7      11.137  41.528  45.973  1.00 73.25 LIG 0.16  HD
ATOM     57 O    THR G   6      12.343  44.258  45.406  1.00 75.15 LIG-0.27  OA
BRANCH 55 58
ATOM     58  CA  ALA G   7       9.866  43.045  46.021  1.00 74.45 LIG 0.16  C 
ATOM     59  CB  ALA G   7       8.835  42.369  45.128  1.00 73.04 LIG 0.04  C 
BRANCH 58 60
ATOM     60  C   ALA G   7       9.397  43.027  47.475  1.00 76.13 LIG 0.22  C 
ATOM     61 O    ALA G   7       9.962  42.327  48.317  1.00 77.97 LIG-0.29  OA
ENDBRANCH 58 60
ENDBRANCH 55 58
ENDBRANCH 49 54
ENDBRANCH 46 49
ENDBRANCH 43 45
ENDBRANCH 40 43
ENDBRANCH 37 39
ENDBRANCH 34 37
ENDBRANCH 1 33
TORSDOF 22
ENDMDL
MODEL 22
USER: ADFR SOLUTION from run 162
USER: SCORE 16.302671 LL:  -3.822 LR: -15.315 RR:   0.000 FEB:  -8.753
USER: RMSD 3.443681
USER: SEED 161
USER: STATUS searching
USER: GENES 24
USER: genes 0 Translation |==|  0.33313 0.50405 0.44682
USER: genes 1 Rotation |==|  0.45041 0.55916 0.56415 0.98982
USER: genes 2 Torsion [CB]-CA--N-[C] |==|  0.26533
USER: genes 3 Torsion [N]-C--CA-[N] |==|  0.53333
USER: genes 4 Torsion [C]-CA--N-[C] |==|  0.75854
USER: genes 5 Torsion [N]-C--CA-[N] |==|  0.26322
USER: genes 6 Torsion [C]-CA--N-[H1] |==|  0.71776
USER: genes 7 Torsion [C]-CA--CB-[CG] |==|  0.48092
USER: genes 8 Torsion [CA]-CB--CG-[CD] |==|  0.96200
USER: genes 9 Torsion [CB]-CG--CD-[NE] |==|  0.38224
USER: genes 10 Torsion [CG]-CD--NE-[CZ] |==|  0.56122
USER: genes 11 Torsion [N]-CA--CB-[OG1] |==|  0.58480
USER: genes 12 Torsion [CA]-CB--OG1-[HG1] |==|  0.76305
USER: genes 13 Torsion [N]-CA--C-[N] |==|  0.44320
USER: genes 14 Torsion [C]-N--CA-[CB] |==|  0.57923
USER: genes 15 Torsion [N]-CA--C-[N] |==|  0.26548
USER: genes 16 Torsion [C]-N--CA-[CB] |==|  0.85232
USER: genes 17 Torsion [N]-CA--C-[N] |==|  0.80021
USER: genes 18 Torsion [C]-N--CA-[CB] |==|  0.19299
USER: genes 19 Torsion [N]-CA--CB-[CG2] |==|  0.70941
USER: genes 20 Torsion [CA]-CB--OG1-[HG1] |==|  0.44514
USER: genes 21 Torsion [N]-CA--C-[N] |==|  0.03496
USER: genes 22 Torsion [C]-N--CA-[C] |==|  0.55198
USER: genes 23 Torsion [N]-CA--C-[O] |==|  0.96852
ROOT
ATOM      1  CA  THR G   3      14.383  38.227  42.086  1.00 68.23 LIG 0.20  C 
ENDROOT
BRANCH 1 2
ATOM      2  N   THR G   3      15.790  38.201  41.696  1.00 68.42 LIG-0.34  N 
ATOM      3  C   ARG G   2      16.214  37.721  40.530  1.00 70.38 LIG 0.24  C 
ATOM      4 O    ARG G   2      15.479  37.153  39.714  1.00 69.46 LIG-0.27  OA
ATOM      5 H    THR G   3      16.319  38.525  42.291  1.00 68.42 LIG 0.16  HD
BRANCH 3 6
ATOM      6  CA  ARG G   2      17.705  37.883  40.254  1.00 72.62 LIG 0.18  C 
BRANCH 6 7
ATOM      7  N   ARG G   2      17.968  37.579  38.850  1.00 74.86 LIG-0.35  N 
ATOM      8  C   ALA G   1      18.203  36.340  38.425  1.00 76.29 LIG 0.25  C 
ATOM      9 O    ALA G   1      18.394  35.383  39.183  1.00 75.70 LIG-0.27  OA
ATOM     10 H    ARG G   2      17.956  38.266  38.333  1.00 74.86 LIG 0.16  HD
BRANCH 8 11
ATOM     11  CA  ALA G   1      18.239  36.148  36.917  1.00 78.97 LIG 0.27  C 
ATOM     12  CB  ALA G   1      17.610  34.809  36.550  1.00 79.33 LIG 0.05  C 
BRANCH 11 13
ATOM     13  N   ALA G   1      19.638  36.228  36.413  1.00 81.42 LIG-0.07  N 
ATOM     14 H3   ALA G   1      19.770  35.597  35.799  1.00 81.42 LIG 0.28  HD
ATOM     15 H2   ALA G   1      20.205  36.107  37.089  1.00 81.42 LIG 0.28  HD
ATOM     16 H1   ALA G   1      19.778  37.029  36.050  1.00 81.42 LIG 0.28  HD
ENDBRANCH 11 13
ENDBRANCH 8 11
ENDBRANCH 6 7
BRANCH 6 17
ATOM     17  CB  ARG G   2      18.174  39.298  40.604  1.00 73.45 LIG 0.04  C 
BRANCH 17 18
ATOM     18  CG  ARG G   2      19.680  39.470  40.507  1.00 75.79 LIG 0.02  C 
BRANCH 18 19
ATOM     19  CD  ARG G   2      20.410  38.139  40.412  1.00 77.52 LIG 0.14  C 
BRANCH 19 20
ATOM     20  NE  ARG G   2      21.485  38.190  39.418  1.00 80.25 LIG-0.23  N 
ATOM     21  CZ  ARG G   2      22.025  37.135  38.800  1.00 82.01 LIG 0.67  C 
ATOM     22  NH1 ARG G   2      21.613  35.890  39.052  1.00 81.47 LIG-0.23  N 
ATOM     23  NH2 ARG G   2      23.002  37.325  37.917  1.00 84.93 LIG-0.23  N 
ATOM     24 1HH1 ARG G   2      20.985  35.753  39.624  1.00 81.47 LIG 0.17  HD
ATOM     25 2HH1 ARG G   2      21.975  35.226  38.642  1.00 81.47 LIG 0.17  HD
ATOM     26 2HH2 ARG G   2      23.356  36.652  37.515  1.00 84.93 LIG 0.17  HD
ATOM     27 1HH2 ARG G   2      23.280  38.121  37.748  1.00 84.93 LIG 0.17  HD
ATOM     28 HE   ARG G   2      21.794  38.966  39.213  1.00 80.25 LIG 0.18  HD
ENDBRANCH 19 20
ENDBRANCH 18 19
ENDBRANCH 17 18
ENDBRANCH 6 17
ENDBRANCH 3 6
ENDBRANCH 1 2
BRANCH 1 29
ATOM     29  CB  THR G   3      14.000  36.999  42.945  1.00 68.23 LIG 0.15  C 
ATOM     30  CG2 THR G   3      14.223  37.282  44.419  1.00 68.63 LIG 0.04  C 
BRANCH 29 31
ATOM     31 OG1  THR G   3      12.626  36.654  42.727  1.00 67.51 LIG-0.39  OA
ATOM     32 HG1  THR G   3      12.138  37.115  43.233  1.00 67.51 LIG 0.21  HD
ENDBRANCH 29 31
ENDBRANCH 1 29
BRANCH 1 33
ATOM     33  C   THR G   3      14.073  39.501  42.864  1.00 68.02 LIG 0.24  C 
ATOM     34  N   ALA G   4      12.790  39.854  42.909  1.00 68.86 LIG-0.35  N 
ATOM     35 H    ALA G   4      12.168  39.432  42.492  1.00 68.86 LIG 0.16  HD
ATOM     36 O    THR G   3      14.974  40.147  43.404  1.00 67.54 LIG-0.27  OA
BRANCH 34 37
ATOM     37  CA  ALA G   4      12.312  41.005  43.681  1.00 69.75 LIG 0.17  C 
ATOM     38  CB  ALA G   4      10.877  40.775  44.125  1.00 70.86 LIG 0.04  C 
BRANCH 37 39
ATOM     39  C   ALA G   4      13.200  41.319  44.892  1.00 71.43 LIG 0.24  C 
ATOM     40  N   ALA G   5      14.138  42.254  44.722  1.00 71.85 LIG-0.35  N 
ATOM     41 H    ALA G   5      14.298  42.634  43.968  1.00 71.85 LIG 0.16  HD
ATOM     42 O    ALA G   4      13.030  40.720  45.958  1.00 72.80 LIG-0.27  OA
BRANCH 40 43
ATOM     43  CA  ALA G   5      14.989  42.725  45.820  1.00 72.89 LIG 0.17  C 
ATOM     44  CB  ALA G   5      14.138  43.171  47.001  1.00 72.65 LIG 0.04  C 
BRANCH 43 45
ATOM     45  C   ALA G   5      15.998  41.660  46.264  1.00 72.87 LIG 0.24  C 
ATOM     46  N   THR G   6      15.513  40.612  46.935  1.00 71.86 LIG-0.34  N 
ATOM     47 H    THR G   6      14.682  40.518  47.136  1.00 71.86 LIG 0.16  HD
ATOM     48 O    ALA G   5      17.195  41.793  45.998  1.00 74.40 LIG-0.27  OA
BRANCH 46 49
ATOM     49  CA  THR G   6      16.372  39.507  47.395  1.00 72.17 LIG 0.20  C 
BRANCH 49 50
ATOM     50  CB  THR G   6      17.324  39.937  48.535  1.00 71.29 LIG 0.15  C 
ATOM     51  CG2 THR G   6      18.749  40.111  48.018  1.00 70.64 LIG 0.04  C 
BRANCH 50 52
ATOM     52 OG1  THR G   6      16.870  41.167  49.114  1.00 70.47 LIG-0.39  OA
ATOM     53 HG1  THR G   6      17.207  41.258  49.879  1.00 70.47 LIG 0.21  HD
ENDBRANCH 50 52
ENDBRANCH 49 50
BRANCH 49 54
ATOM     54  C   THR G   6      15.564  38.284  47.851  1.00 73.53 LIG 0.24  C 
ATOM     55  N   ALA G   7      14.264  38.267  47.539  1.00 73.25 LIG-0.35  N 
ATOM     56 H    ALA G   7      13.857  38.934  47.179  1.00 73.25 LIG 0.16  HD
ATOM     57 O    THR G   6      16.118  37.384  48.487  1.00 75.15 LIG-0.27  OA
BRANCH 55 58
ATOM     58  CA  ALA G   7      13.396  37.106  47.781  1.00 74.45 LIG 0.16  C 
ATOM     59  CB  ALA G   7      13.033  37.010  49.256  1.00 73.04 LIG 0.04  C 
BRANCH 58 60
ATOM     60  C   ALA G   7      12.129  37.194  46.931  1.00 76.13 LIG 0.22  C 
ATOM     61 O    ALA G   7      11.836  38.229  46.331  1.00 77.97 LIG-0.29  OA
ENDBRANCH 58 60
ENDBRANCH 55 58
ENDBRANCH 49 54
ENDBRANCH 46 49
ENDBRANCH 43 45
ENDBRANCH 40 43
ENDBRANCH 37 39
ENDBRANCH 34 37
ENDBRANCH 1 33
TORSDOF 22
ENDMDL
MODEL 23
USER: ADFR SOLUTION from run 68
USER: SCORE 16.984615 LL:  -3.719 LR: -15.305 RR:   0.000 FEB:  -8.742
USER: RMSD 4.089540
USER: SEED 67
USER: STATUS no improvement in best in 22 clusters for 5 generations
USER: GENES 24
USER: genes 0 Translation |==|  0.33138 0.49474 0.44984
USER: genes 1 Rotation |==|  0.46065 0.55863 0.56623 0.99054
USER: genes 2 Torsion [CB]-CA--N-[C] |==|  0.26531
USER: genes 3 Torsion [N]-C--CA-[N] |==|  0.53100
USER: genes 4 Torsion [C]-CA--N-[C] |==|  0.75123
USER: genes 5 Torsion [N]-C--CA-[N] |==|  0.27557
USER: genes 6 Torsion [C]-CA--N-[H1] |==|  0.72559
USER: genes 7 Torsion [C]-CA--CB-[CG] |==|  0.49182
USER: genes 8 Torsion [CA]-CB--CG-[CD] |==|  0.94495
USER: genes 9 Torsion [CB]-CG--CD-[NE] |==|  0.39564
USER: genes 10 Torsion [CG]-CD--NE-[CZ] |==|  0.57050
USER: genes 11 Torsion [N]-CA--CB-[OG1] |==|  0.56151
USER: genes 12 Torsion [CA]-CB--OG1-[HG1] |==|  0.72626
USER: genes 13 Torsion [N]-CA--C-[N] |==|  0.44445
USER: genes 14 Torsion [C]-N--CA-[CB] |==|  0.52293
USER: genes 15 Torsion [N]-CA--C-[N] |==|  0.44526
USER: genes 16 Torsion [C]-N--CA-[CB] |==|  0.51127
USER: genes 17 Torsion [N]-CA--C-[N] |==|  0.43708
USER: genes 18 Torsion [C]-N--CA-[CB] |==|  0.86107
USER: genes 19 Torsion [N]-CA--CB-[CG2] |==|  0.54807
USER: genes 20 Torsion [CA]-CB--OG1-[HG1] |==|  0.24810
USER: genes 21 Torsion [N]-CA--C-[N] |==|  0.89886
USER: genes 22 Torsion [C]-N--CA-[C] |==|  0.80526
USER: genes 23 Torsion [N]-CA--C-[O] |==|  0.94176
ROOT
ATOM      1  CA  THR G   3      14.344  38.059  42.147  1.00 68.23 LIG 0.20  C 
ENDROOT
BRANCH 1 2
ATOM      2  N   THR G   3      15.749  38.054  41.752  1.00 68.42 LIG-0.34  N 
ATOM      3  C   ARG G   2      16.170  37.624  40.565  1.00 70.38 LIG 0.24  C 
ATOM      4 O    ARG G   2      15.434  37.089  39.728  1.00 69.46 LIG-0.27  OA
ATOM      5 H    THR G   3      16.279  38.355  42.358  1.00 68.42 LIG 0.16  HD
BRANCH 3 6
ATOM      6  CA  ARG G   2      17.660  37.802  40.290  1.00 72.62 LIG 0.18  C 
BRANCH 6 7
ATOM      7  N   ARG G   2      17.921  37.539  38.878  1.00 74.86 LIG-0.35  N 
ATOM      8  C   ALA G   1      18.213  36.321  38.427  1.00 76.29 LIG 0.25  C 
ATOM      9 O    ALA G   1      18.460  35.361  39.164  1.00 75.70 LIG-0.27  OA
ATOM     10 H    ARG G   2      17.869  38.234  38.374  1.00 74.86 LIG 0.16  HD
BRANCH 8 11
ATOM     11  CA  ALA G   1      18.242  36.159  36.915  1.00 78.97 LIG 0.27  C 
ATOM     12  CB  ALA G   1      17.576  34.845  36.523  1.00 79.33 LIG 0.05  C 
BRANCH 11 13
ATOM     13  N   ALA G   1      19.642  36.213  36.410  1.00 81.42 LIG-0.07  N 
ATOM     14 H3   ALA G   1      19.744  35.619  35.754  1.00 81.42 LIG 0.28  HD
ATOM     15 H2   ALA G   1      20.204  36.022  37.073  1.00 81.42 LIG 0.28  HD
ATOM     16 H1   ALA G   1      19.815  37.029  36.100  1.00 81.42 LIG 0.28  HD
ENDBRANCH 11 13
ENDBRANCH 8 11
ENDBRANCH 6 7
BRANCH 6 17
ATOM     17  CB  ARG G   2      18.121  39.211  40.678  1.00 73.45 LIG 0.04  C 
BRANCH 17 18
ATOM     18  CG  ARG G   2      19.614  39.423  40.492  1.00 75.79 LIG 0.02  C 
BRANCH 18 19
ATOM     19  CD  ARG G   2      20.382  38.112  40.435  1.00 77.52 LIG 0.14  C 
BRANCH 19 20
ATOM     20  NE  ARG G   2      21.477  38.177  39.463  1.00 80.25 LIG-0.23  N 
ATOM     21  CZ  ARG G   2      22.017  37.133  38.828  1.00 82.01 LIG 0.67  C 
ATOM     22  NH1 ARG G   2      21.587  35.886  39.038  1.00 81.47 LIG-0.23  N 
ATOM     23  NH2 ARG G   2      23.013  37.335  37.969  1.00 84.93 LIG-0.23  N 
ATOM     24 1HH1 ARG G   2      20.947  35.741  39.594  1.00 81.47 LIG 0.17  HD
ATOM     25 2HH1 ARG G   2      21.950  35.229  38.618  1.00 81.47 LIG 0.17  HD
ATOM     26 2HH2 ARG G   2      23.367  36.670  37.556  1.00 84.93 LIG 0.17  HD
ATOM     27 1HH2 ARG G   2      23.303  38.133  37.827  1.00 84.93 LIG 0.17  HD
ATOM     28 HE   ARG G   2      21.799  38.955  39.286  1.00 80.25 LIG 0.18  HD
ENDBRANCH 19 20
ENDBRANCH 18 19
ENDBRANCH 17 18
ENDBRANCH 6 17
ENDBRANCH 3 6
ENDBRANCH 1 2
BRANCH 1 29
ATOM     29  CB  THR G   3      13.968  36.795  42.956  1.00 68.23 LIG 0.15  C 
ATOM     30  CG2 THR G   3      14.385  36.940  44.407  1.00 68.63 LIG 0.04  C 
BRANCH 29 31
ATOM     31 OG1  THR G   3      12.554  36.567  42.886  1.00 67.51 LIG-0.39  OA
ATOM     32 HG1  THR G   3      12.188  36.867  43.579  1.00 67.51 LIG 0.21  HD
ENDBRANCH 29 31
ENDBRANCH 1 29
BRANCH 1 33
ATOM     33  C   THR G   3      14.033  39.299  42.979  1.00 68.02 LIG 0.24  C 
ATOM     34  N   ALA G   4      12.747  39.640  43.051  1.00 68.86 LIG-0.35  N 
ATOM     35 H    ALA G   4      12.124  39.231  42.623  1.00 68.86 LIG 0.16  HD
ATOM     36 O    THR G   3      14.934  39.929  43.535  1.00 67.54 LIG-0.27  OA
BRANCH 34 37
ATOM     37  CA  ALA G   4      12.270  40.756  43.873  1.00 69.75 LIG 0.17  C 
ATOM     38  CB  ALA G   4      10.750  40.765  43.907  1.00 70.86 LIG 0.04  C 
BRANCH 37 39
ATOM     39  C   ALA G   4      12.833  40.727  45.299  1.00 71.43 LIG 0.24  C 
ATOM     40  N   ALA G   5      12.797  41.873  45.982  1.00 71.85 LIG-0.35  N 
ATOM     41 H    ALA G   5      12.533  42.619  45.645  1.00 71.85 LIG 0.16  HD
ATOM     42 O    ALA G   4      13.290  39.679  45.765  1.00 72.80 LIG-0.27  OA
BRANCH 40 43
ATOM     43  CA  ALA G   5      13.208  41.968  47.387  1.00 72.89 LIG 0.17  C 
ATOM     44  CB  ALA G   5      12.962  43.373  47.922  1.00 72.65 LIG 0.04  C 
BRANCH 43 45
ATOM     45  C   ALA G   5      12.499  40.932  48.266  1.00 72.87 LIG 0.24  C 
ATOM     46  N   THR G   6      13.098  40.603  49.414  1.00 71.86 LIG-0.34  N 
ATOM     47 H    THR G   6      13.852  40.928  49.668  1.00 71.86 LIG 0.16  HD
ATOM     48 O    ALA G   5      11.426  40.445  47.904  1.00 74.40 LIG-0.27  OA
BRANCH 46 49
ATOM     49  CA  THR G   6      12.508  39.640  50.360  1.00 72.17 LIG 0.20  C 
BRANCH 49 50
ATOM     50  CB  THR G   6      11.031  39.963  50.684  1.00 71.29 LIG 0.15  C 
ATOM     51  CG2 THR G   6      10.582  39.239  51.951  1.00 70.64 LIG 0.04  C 
BRANCH 50 52
ATOM     52 OG1  THR G   6      10.863  41.375  50.854  1.00 70.47 LIG-0.39  OA
ATOM     53 HG1  THR G   6      10.686  41.728  50.112  1.00 70.47 LIG 0.21  HD
ENDBRANCH 50 52
ENDBRANCH 49 50
BRANCH 49 54
ATOM     54  C   THR G   6      12.606  38.191  49.862  1.00 73.53 LIG 0.24  C 
ATOM     55  N   ALA G   7      12.459  37.992  48.548  1.00 73.25 LIG-0.35  N 
ATOM     56 H    ALA G   7      12.234  38.615  47.999  1.00 73.25 LIG 0.16  HD
ATOM     57 O    THR G   6      12.798  37.277  50.667  1.00 75.15 LIG-0.27  OA
BRANCH 55 58
ATOM     58  CA  ALA G   7      12.669  36.686  47.907  1.00 74.45 LIG 0.16  C 
ATOM     59  CB  ALA G   7      12.138  36.702  46.480  1.00 73.04 LIG 0.04  C 
BRANCH 58 60
ATOM     60  C   ALA G   7      14.151  36.313  47.913  1.00 76.13 LIG 0.22  C 
ATOM     61 O    ALA G   7      15.022  37.175  48.043  1.00 77.97 LIG-0.29  OA
ENDBRANCH 58 60
ENDBRANCH 55 58
ENDBRANCH 49 54
ENDBRANCH 46 49
ENDBRANCH 43 45
ENDBRANCH 40 43
ENDBRANCH 37 39
ENDBRANCH 34 37
ENDBRANCH 1 33
TORSDOF 22
ENDMDL
MODEL 24
USER: ADFR SOLUTION from run 139
USER: SCORE 16.674157 LL:  -3.658 LR: -15.282 RR:   0.000 FEB:  -8.719
USER: RMSD 3.523727
USER: SEED 138
USER: STATUS searching
USER: GENES 24
USER: genes 0 Translation |==|  0.32188 0.47407 0.44948
USER: genes 1 Rotation |==|  0.56737 0.53946 0.55195 0.99113
USER: genes 2 Torsion [CB]-CA--N-[C] |==|  0.22547
USER: genes 3 Torsion [N]-C--CA-[N] |==|  0.51111
USER: genes 4 Torsion [C]-CA--N-[C] |==|  0.74310
USER: genes 5 Torsion [N]-C--CA-[N] |==|  0.28361
USER: genes 6 Torsion [C]-CA--N-[H1] |==|  0.35994
USER: genes 7 Torsion [C]-CA--CB-[CG] |==|  0.49613
USER: genes 8 Torsion [CA]-CB--CG-[CD] |==|  0.95448
USER: genes 9 Torsion [CB]-CG--CD-[NE] |==|  0.39187
USER: genes 10 Torsion [CG]-CD--NE-[CZ] |==|  0.54749
USER: genes 11 Torsion [N]-CA--CB-[OG1] |==|  0.52873
USER: genes 12 Torsion [CA]-CB--OG1-[HG1] |==|  0.82178
USER: genes 13 Torsion [N]-CA--C-[N] |==|  0.39577
USER: genes 14 Torsion [C]-N--CA-[CB] |==|  0.52902
USER: genes 15 Torsion [N]-CA--C-[N] |==|  0.34851
USER: genes 16 Torsion [C]-N--CA-[CB] |==|  0.87219
USER: genes 17 Torsion [N]-CA--C-[N] |==|  0.88249
USER: genes 18 Torsion [C]-N--CA-[CB] |==|  0.78660
USER: genes 19 Torsion [N]-CA--CB-[CG2] |==|  0.64011
USER: genes 20 Torsion [CA]-CB--OG1-[HG1] |==|  0.40683
USER: genes 21 Torsion [N]-CA--C-[N] |==|  0.19492
USER: genes 22 Torsion [C]-N--CA-[C] |==|  0.19509
USER: genes 23 Torsion [N]-CA--C-[O] |==|  0.05331
ROOT
ATOM      1  CA  THR G   3      14.130  37.687  42.140  1.00 68.23 LIG 0.20  C 
ENDROOT
BRANCH 1 2
ATOM      2  N   THR G   3      15.545  37.701  41.780  1.00 68.42 LIG-0.34  N 
ATOM      3  C   ARG G   2      15.984  37.479  40.544  1.00 70.38 LIG 0.24  C 
ATOM      4 O    ARG G   2      15.254  37.134  39.608  1.00 69.46 LIG-0.27  OA
ATOM      5 H    THR G   3      16.067  37.866  42.442  1.00 68.42 LIG 0.16  HD
BRANCH 3 6
ATOM      6  CA  ARG G   2      17.486  37.647  40.338  1.00 72.62 LIG 0.18  C 
BRANCH 6 7
ATOM      7  N   ARG G   2      17.799  37.465  38.924  1.00 74.86 LIG-0.35  N 
ATOM      8  C   ALA G   1      18.146  36.283  38.421  1.00 76.29 LIG 0.25  C 
ATOM      9 O    ALA G   1      18.402  35.294  39.115  1.00 75.70 LIG-0.27  OA
ATOM     10 H    ARG G   2      17.739  38.184  38.455  1.00 74.86 LIG 0.16  HD
BRANCH 8 11
ATOM     11  CA  ALA G   1      18.226  36.201  36.905  1.00 78.97 LIG 0.27  C 
ATOM     12  CB  ALA G   1      17.553  34.922  36.419  1.00 79.33 LIG 0.05  C 
BRANCH 11 13
ATOM     13  N   ALA G   1      19.643  36.255  36.452  1.00 81.42 LIG-0.07  N 
ATOM     14 H3   ALA G   1      20.183  36.186  37.156  1.00 81.42 LIG 0.28  HD
ATOM     15 H2   ALA G   1      19.793  37.029  36.038  1.00 81.42 LIG 0.28  HD
ATOM     16 H1   ALA G   1      19.801  35.584  35.890  1.00 81.42 LIG 0.28  HD
ENDBRANCH 11 13
ENDBRANCH 8 11
ENDBRANCH 6 7
BRANCH 6 17
ATOM     17  CB  ARG G   2      17.953  39.021  40.830  1.00 73.45 LIG 0.04  C 
BRANCH 17 18
ATOM     18  CG  ARG G   2      19.450  39.231  40.680  1.00 75.79 LIG 0.02  C 
BRANCH 18 19
ATOM     19  CD  ARG G   2      20.200  37.926  40.459  1.00 77.52 LIG 0.14  C 
BRANCH 19 20
ATOM     20  NE  ARG G   2      21.281  38.091  39.485  1.00 80.25 LIG-0.23  N 
ATOM     21  CZ  ARG G   2      21.905  37.101  38.839  1.00 82.01 LIG 0.67  C 
ATOM     22  NH1 ARG G   2      21.579  35.821  39.038  1.00 81.47 LIG-0.23  N 
ATOM     23  NH2 ARG G   2      22.877  37.393  37.979  1.00 84.93 LIG-0.23  N 
ATOM     24 1HH1 ARG G   2      20.955  35.618  39.594  1.00 81.47 LIG 0.17  HD
ATOM     25 2HH1 ARG G   2      21.994  35.201  38.611  1.00 81.47 LIG 0.17  HD
ATOM     26 2HH2 ARG G   2      23.284  36.763  37.559  1.00 84.93 LIG 0.17  HD
ATOM     27 1HH2 ARG G   2      23.100  38.213  37.844  1.00 84.93 LIG 0.17  HD
ATOM     28 HE   ARG G   2      21.537  38.895  39.314  1.00 80.25 LIG 0.18  HD
ENDBRANCH 19 20
ENDBRANCH 18 19
ENDBRANCH 17 18
ENDBRANCH 6 17
ENDBRANCH 3 6
ENDBRANCH 1 2
BRANCH 1 29
ATOM     29  CB  THR G   3      13.603  36.249  42.353  1.00 68.23 LIG 0.15  C 
ATOM     30  CG2 THR G   3      14.204  35.634  43.603  1.00 68.63 LIG 0.04  C 
BRANCH 29 31
ATOM     31 OG1  THR G   3      12.174  36.259  42.466  1.00 67.51 LIG-0.39  OA
ATOM     32 HG1  THR G   3      11.950  36.687  43.152  1.00 67.51 LIG 0.21  HD
ENDBRANCH 29 31
ENDBRANCH 1 29
BRANCH 1 33
ATOM     33  C   THR G   3      13.899  38.500  43.409  1.00 68.02 LIG 0.24  C 
ATOM     34  N   ALA G   4      12.774  39.211  43.445  1.00 68.86 LIG-0.35  N 
ATOM     35 H    ALA G   4      12.224  39.261  42.785  1.00 68.86 LIG 0.16  HD
ATOM     36 O    THR G   3      14.722  38.485  44.328  1.00 67.54 LIG-0.27  OA
BRANCH 34 37
ATOM     37  CA  ALA G   4      12.361  39.982  44.621  1.00 69.75 LIG 0.17  C 
ATOM     38  CB  ALA G   4      10.931  40.466  44.452  1.00 70.86 LIG 0.04  C 
BRANCH 37 39
ATOM     39  C   ALA G   4      12.505  39.194  45.929  1.00 71.43 LIG 0.24  C 
ATOM     40  N   ALA G   5      13.230  39.761  46.896  1.00 71.85 LIG-0.35  N 
ATOM     41 H    ALA G   5      13.656  40.501  46.797  1.00 71.85 LIG 0.16  HD
ATOM     42 O    ALA G   4      11.963  38.091  46.051  1.00 72.80 LIG-0.27  OA
BRANCH 40 43
ATOM     43  CA  ALA G   5      13.367  39.167  48.230  1.00 72.89 LIG 0.17  C 
ATOM     44  CB  ALA G   5      12.011  38.715  48.755  1.00 72.65 LIG 0.04  C 
BRANCH 43 45
ATOM     45  C   ALA G   5      14.359  37.999  48.241  1.00 72.87 LIG 0.24  C 
ATOM     46  N   THR G   6      14.293  37.143  47.218  1.00 71.86 LIG-0.34  N 
ATOM     47 H    THR G   6      13.724  37.209  46.577  1.00 71.86 LIG 0.16  HD
ATOM     48 O    ALA G   5      15.167  37.883  49.165  1.00 74.40 LIG-0.27  OA
BRANCH 46 49
ATOM     49  CA  THR G   6      15.206  35.993  47.096  1.00 72.17 LIG 0.20  C 
BRANCH 49 50
ATOM     50  CB  THR G   6      16.614  36.408  46.609  1.00 71.29 LIG 0.15  C 
ATOM     51  CG2 THR G   6      17.058  35.544  45.431  1.00 70.64 LIG 0.04  C 
BRANCH 50 52
ATOM     52 OG1  THR G   6      16.611  37.786  46.218  1.00 70.47 LIG-0.39  OA
ATOM     53 HG1  THR G   6      17.357  38.129  46.394  1.00 70.47 LIG 0.21  HD
ENDBRANCH 50 52
ENDBRANCH 49 50
BRANCH 49 54
ATOM     54  C   THR G   6      15.341  35.208  48.409  1.00 73.53 LIG 0.24  C 
ATOM     55  N   ALA G   7      14.277  34.503  48.804  1.00 73.25 LIG-0.35  N 
ATOM     56 H    ALA G   7      13.514  34.539  48.409  1.00 73.25 LIG 0.16  HD
ATOM     57 O    THR G   6      16.394  35.260  49.050  1.00 75.15 LIG-0.27  OA
BRANCH 55 58
ATOM     58  CA  ALA G   7      14.302  33.592  49.958  1.00 74.45 LIG 0.16  C 
ATOM     59  CB  ALA G   7      15.462  32.615  49.840  1.00 73.04 LIG 0.04  C 
BRANCH 58 60
ATOM     60  C   ALA G   7      14.406  34.378  51.264  1.00 76.13 LIG 0.22  C 
ATOM     61 O    ALA G   7      14.110  35.573  51.312  1.00 77.97 LIG-0.29  OA
ENDBRANCH 58 60
ENDBRANCH 55 58
ENDBRANCH 49 54
ENDBRANCH 46 49
ENDBRANCH 43 45
ENDBRANCH 40 43
ENDBRANCH 37 39
ENDBRANCH 34 37
ENDBRANCH 1 33
TORSDOF 22
ENDMDL
MODEL 25
USER: ADFR SOLUTION from run 97
USER: SCORE 16.816592 LL:  -3.315 LR: -15.262 RR:   0.000 FEB:  -8.699
USER: RMSD 4.394496
USER: SEED 96
USER: STATUS searching
USER: GENES 24
USER: genes 0 Translation |==|  0.32362 0.45983 0.48254
USER: genes 1 Rotation |==|  0.70872 0.54201 0.54568 0.95009
USER: genes 2 Torsion [CB]-CA--N-[C] |==|  0.15849
USER: genes 3 Torsion [N]-C--CA-[N] |==|  0.48098
USER: genes 4 Torsion [C]-CA--N-[C] |==|  0.72679
USER: genes 5 Torsion [N]-C--CA-[N] |==|  0.30894
USER: genes 6 Torsion [C]-CA--N-[H1] |==|  0.84712
USER: genes 7 Torsion [C]-CA--CB-[CG] |==|  0.51157
USER: genes 8 Torsion [CA]-CB--CG-[CD] |==|  0.32094
USER: genes 9 Torsion [CB]-CG--CD-[NE] |==|  0.54971
USER: genes 10 Torsion [CG]-CD--NE-[CZ] |==|  0.55297
USER: genes 11 Torsion [N]-CA--CB-[OG1] |==|  0.54982
USER: genes 12 Torsion [CA]-CB--OG1-[HG1] |==|  0.92567
USER: genes 13 Torsion [N]-CA--C-[N] |==|  0.51793
USER: genes 14 Torsion [C]-N--CA-[CB] |==|  0.84432
USER: genes 15 Torsion [N]-CA--C-[N] |==|  0.42775
USER: genes 16 Torsion [C]-N--CA-[CB] |==|  0.84348
USER: genes 17 Torsion [N]-CA--C-[N] |==|  0.98935
USER: genes 18 Torsion [C]-N--CA-[CB] |==|  0.86024
USER: genes 19 Torsion [N]-CA--CB-[CG2] |==|  0.56379
USER: genes 20 Torsion [CA]-CB--OG1-[HG1] |==|  0.40115
USER: genes 21 Torsion [N]-CA--C-[N] |==|  0.91666
USER: genes 22 Torsion [C]-N--CA-[C] |==|  0.56869
USER: genes 23 Torsion [N]-CA--C-[O] |==|  0.00487
ROOT
ATOM      1  CA  THR G   3      14.169  37.431  42.809  1.00 68.23 LIG 0.20  C 
ENDROOT
BRANCH 1 2
ATOM      2  N   THR G   3      15.554  37.607  42.382  1.00 68.42 LIG-0.34  N 
ATOM      3  C   ARG G   2      15.923  37.637  41.104  1.00 70.38 LIG 0.24  C 
ATOM      4 O    ARG G   2      15.155  37.412  40.162  1.00 69.46 LIG-0.27  OA
ATOM      5 H    THR G   3      16.108  37.689  43.034  1.00 68.42 LIG 0.16  HD
BRANCH 3 6
ATOM      6  CA  ARG G   2      17.396  37.944  40.851  1.00 72.62 LIG 0.18  C 
BRANCH 6 7
ATOM      7  N   ARG G   2      17.681  37.782  39.428  1.00 74.86 LIG-0.35  N 
ATOM      8  C   ALA G   1      18.229  36.672  38.937  1.00 76.29 LIG 0.25  C 
ATOM      9 O    ALA G   1      18.698  35.773  39.641  1.00 75.70 LIG-0.27  OA
ATOM     10 H    ARG G   2      17.465  38.461  38.946  1.00 74.86 LIG 0.16  HD
BRANCH 8 11
ATOM     11  CA  ALA G   1      18.262  36.561  37.421  1.00 78.97 LIG 0.27  C 
ATOM     12  CB  ALA G   1      17.619  35.250  36.984  1.00 79.33 LIG 0.05  C 
BRANCH 11 13
ATOM     13  N   ALA G   1      19.661  36.654  36.920  1.00 81.42 LIG-0.07  N 
ATOM     14 H3   ALA G   1      19.659  36.659  36.030  1.00 81.42 LIG 0.28  HD
ATOM     15 H2   ALA G   1      20.128  35.954  37.211  1.00 81.42 LIG 0.28  HD
ATOM     16 H1   ALA G   1      20.035  37.404  37.220  1.00 81.42 LIG 0.28  HD
ENDBRANCH 11 13
ENDBRANCH 8 11
ENDBRANCH 6 7
BRANCH 6 17
ATOM     17  CB  ARG G   2      17.747  39.358  41.322  1.00 73.45 LIG 0.04  C 
BRANCH 17 18
ATOM     18  CG  ARG G   2      19.178  39.756  41.004  1.00 75.79 LIG 0.02  C 
BRANCH 18 19
ATOM     19  CD  ARG G   2      19.253  40.914  40.021  1.00 77.52 LIG 0.14  C 
BRANCH 19 20
ATOM     20  NE  ARG G   2      20.580  41.009  39.408  1.00 80.25 LIG-0.23  N 
ATOM     21  CZ  ARG G   2      21.082  42.089  38.800  1.00 82.01 LIG 0.67  C 
ATOM     22  NH1 ARG G   2      20.382  43.221  38.694  1.00 81.47 LIG-0.23  N 
ATOM     23  NH2 ARG G   2      22.306  42.036  38.281  1.00 84.93 LIG-0.23  N 
ATOM     24 1HH1 ARG G   2      19.587  43.267  39.022  1.00 81.47 LIG 0.17  HD
ATOM     25 2HH1 ARG G   2      20.725  43.903  38.299  1.00 81.47 LIG 0.17  HD
ATOM     26 2HH2 ARG G   2      22.637  42.726  37.888  1.00 84.93 LIG 0.17  HD
ATOM     27 1HH2 ARG G   2      22.767  41.312  38.339  1.00 84.93 LIG 0.17  HD
ATOM     28 HE   ARG G   2      21.080  40.310  39.443  1.00 80.25 LIG 0.18  HD
ENDBRANCH 19 20
ENDBRANCH 18 19
ENDBRANCH 17 18
ENDBRANCH 6 17
ENDBRANCH 3 6
ENDBRANCH 1 2
BRANCH 1 29
ATOM     29  CB  THR G   3      13.553  36.127  42.249  1.00 68.23 LIG 0.15  C 
ATOM     30  CG2 THR G   3      14.053  34.920  43.022  1.00 68.63 LIG 0.04  C 
BRANCH 29 31
ATOM     31 OG1  THR G   3      12.123  36.184  42.326  1.00 67.51 LIG-0.39  OA
ATOM     32 HG1  THR G   3      11.897  36.695  42.953  1.00 67.51 LIG 0.21  HD
ENDBRANCH 29 31
ENDBRANCH 1 29
BRANCH 1 33
ATOM     33  C   THR G   3      14.084  37.414  44.332  1.00 68.02 LIG 0.24  C 
ATOM     34  N   ALA G   4      12.888  37.126  44.841  1.00 68.86 LIG-0.35  N 
ATOM     35 H    ALA G   4      12.185  37.004  44.361  1.00 68.86 LIG 0.16  HD
ATOM     36 O    THR G   3      15.074  37.660  45.023  1.00 67.54 LIG-0.27  OA
BRANCH 34 37
ATOM     37  CA  ALA G   4      12.653  36.989  46.282  1.00 69.75 LIG 0.17  C 
ATOM     38  CB  ALA G   4      13.587  35.943  46.865  1.00 70.86 LIG 0.04  C 
BRANCH 37 39
ATOM     39  C   ALA G   4      12.802  38.316  47.037  1.00 71.43 LIG 0.24  C 
ATOM     40  N   ALA G   5      12.122  38.436  48.179  1.00 71.85 LIG-0.35  N 
ATOM     41 H    ALA G   5      11.574  37.841  48.470  1.00 71.85 LIG 0.16  HD
ATOM     42 O    ALA G   4      13.525  39.209  46.585  1.00 72.80 LIG-0.27  OA
BRANCH 40 43
ATOM     43  CA  ALA G   5      12.249  39.608  49.053  1.00 72.89 LIG 0.17  C 
ATOM     44  CB  ALA G   5      13.704  39.820  49.452  1.00 72.65 LIG 0.04  C 
BRANCH 43 45
ATOM     45  C   ALA G   5      11.686  40.875  48.403  1.00 72.87 LIG 0.24  C 
ATOM     46  N   THR G   6      11.247  40.764  47.146  1.00 71.86 LIG-0.34  N 
ATOM     47 H    THR G   6      11.279  40.034  46.692  1.00 71.86 LIG 0.16  HD
ATOM     48 O    ALA G   5      11.652  41.933  49.036  1.00 74.40 LIG-0.27  OA
BRANCH 46 49
ATOM     49  CA  THR G   6      10.659  41.900  46.415  1.00 72.17 LIG 0.20  C 
BRANCH 49 50
ATOM     50  CB  THR G   6       9.551  42.612  47.227  1.00 71.29 LIG 0.15  C 
ATOM     51  CG2 THR G   6       8.601  43.369  46.302  1.00 70.64 LIG 0.04  C 
BRANCH 50 52
ATOM     52 OG1  THR G   6       8.812  41.653  47.993  1.00 70.47 LIG-0.39  OA
ATOM     53 HG1  THR G   6       8.590  41.993  48.729  1.00 70.47 LIG 0.21  HD
ENDBRANCH 50 52
ENDBRANCH 49 50
BRANCH 49 54
ATOM     54  C   THR G   6      11.711  42.935  45.991  1.00 73.53 LIG 0.24  C 
ATOM     55  N   ALA G   7      12.787  43.059  46.774  1.00 73.25 LIG-0.35  N 
ATOM     56 H    ALA G   7      12.870  42.655  47.530  1.00 73.25 LIG 0.16  HD
ATOM     57 O    THR G   6      11.532  43.612  44.976  1.00 75.15 LIG-0.27  OA
BRANCH 55 58
ATOM     58  CA  ALA G   7      13.942  43.899  46.424  1.00 74.45 LIG 0.16  C 
ATOM     59  CB  ALA G   7      13.674  45.352  46.790  1.00 73.04 LIG 0.04  C 
BRANCH 58 60
ATOM     60  C   ALA G   7      15.204  43.402  47.129  1.00 76.13 LIG 0.22  C 
ATOM     61 O    ALA G   7      15.178  42.403  47.849  1.00 77.97 LIG-0.29  OA
ENDBRANCH 58 60
ENDBRANCH 55 58
ENDBRANCH 49 54
ENDBRANCH 46 49
ENDBRANCH 43 45
ENDBRANCH 40 43
ENDBRANCH 37 39
ENDBRANCH 34 37
ENDBRANCH 1 33
TORSDOF 22
ENDMDL
MODEL 26
USER: ADFR SOLUTION from run 46
USER: SCORE 15.723519 LL:  -3.380 LR: -15.261 RR:   0.000 FEB:  -8.698
USER: RMSD 4.824894
USER: SEED 45
USER: STATUS no improvement in best in 27 clusters for 5 generations
USER: GENES 24
USER: genes 0 Translation |==|  0.33382 0.46273 0.48056
USER: genes 1 Rotation |==|  0.70329 0.56098 0.52883 0.95180
USER: genes 2 Torsion [CB]-CA--N-[C] |==|  0.16265
USER: genes 3 Torsion [N]-C--CA-[N] |==|  0.47616
USER: genes 4 Torsion [C]-CA--N-[C] |==|  0.66888
USER: genes 5 Torsion [N]-C--CA-[N] |==|  0.38343
USER: genes 6 Torsion [C]-CA--N-[H1] |==|  0.38013
USER: genes 7 Torsion [C]-CA--CB-[CG] |==|  0.61906
USER: genes 8 Torsion [CA]-CB--CG-[CD] |==|  0.57508
USER: genes 9 Torsion [CB]-CG--CD-[NE] |==|  0.41206
USER: genes 10 Torsion [CG]-CD--NE-[CZ] |==|  0.30588
USER: genes 11 Torsion [N]-CA--CB-[OG1] |==|  0.55920
USER: genes 12 Torsion [CA]-CB--OG1-[HG1] |==|  0.81655
USER: genes 13 Torsion [N]-CA--C-[N] |==|  0.54238
USER: genes 14 Torsion [C]-N--CA-[CB] |==|  0.84844
USER: genes 15 Torsion [N]-CA--C-[N] |==|  0.34060
USER: genes 16 Torsion [C]-N--CA-[CB] |==|  0.80162
USER: genes 17 Torsion [N]-CA--C-[N] |==|  0.14157
USER: genes 18 Torsion [C]-N--CA-[CB] |==|  0.39646
USER: genes 19 Torsion [N]-CA--CB-[CG2] |==|  0.86494
USER: genes 20 Torsion [CA]-CB--OG1-[HG1] |==|  0.35539
USER: genes 21 Torsion [N]-CA--C-[N] |==|  0.93566
USER: genes 22 Torsion [C]-N--CA-[C] |==|  0.75784
USER: genes 23 Torsion [N]-CA--C-[O] |==|  0.95949
ROOT
ATOM      1  CA  THR G   3      14.399  37.483  42.769  1.00 68.23 LIG 0.20  C 
ENDROOT
BRANCH 1 2
ATOM      2  N   THR G   3      15.741  37.604  42.208  1.00 68.42 LIG-0.34  N 
ATOM      3  C   ARG G   2      15.986  37.609  40.900  1.00 70.38 LIG 0.24  C 
ATOM      4 O    ARG G   2      15.123  37.404  40.039  1.00 69.46 LIG-0.27  OA
ATOM      5 H    THR G   3      16.358  37.671  42.803  1.00 68.42 LIG 0.16  HD
BRANCH 3 6
ATOM      6  CA  ARG G   2      17.437  37.858  40.504  1.00 72.62 LIG 0.18  C 
BRANCH 6 7
ATOM      7  N   ARG G   2      17.587  37.633  39.069  1.00 74.86 LIG-0.35  N 
ATOM      8  C   ALA G   1      18.402  36.703  38.578  1.00 76.29 LIG 0.25  C 
ATOM      9 O    ALA G   1      19.221  36.082  39.264  1.00 75.70 LIG-0.27  OA
ATOM     10 H    ARG G   2      17.105  38.151  38.579  1.00 74.86 LIG 0.16  HD
BRANCH 8 11
ATOM     11  CA  ALA G   1      18.288  36.436  37.086  1.00 78.97 LIG 0.27  C 
ATOM     12  CB  ALA G   1      17.441  35.191  36.846  1.00 79.33 LIG 0.05  C 
BRANCH 11 13
ATOM     13  N   ALA G   1      19.638  36.279  36.477  1.00 81.42 LIG-0.07  N 
ATOM     14 H3   ALA G   1      20.238  36.128  37.118  1.00 81.42 LIG 0.28  HD
ATOM     15 H2   ALA G   1      19.854  37.023  36.039  1.00 81.42 LIG 0.28  HD
ATOM     16 H1   ALA G   1      19.631  35.593  35.910  1.00 81.42 LIG 0.28  HD
ENDBRANCH 11 13
ENDBRANCH 8 11
ENDBRANCH 6 7
BRANCH 6 17
ATOM     17  CB  ARG G   2      17.870  39.278  40.882  1.00 73.45 LIG 0.04  C 
BRANCH 17 18
ATOM     18  CG  ARG G   2      18.685  39.963  39.799  1.00 75.79 LIG 0.02  C 
BRANCH 18 19
ATOM     19  CD  ARG G   2      19.631  41.013  40.362  1.00 77.52 LIG 0.14  C 
BRANCH 19 20
ATOM     20  NE  ARG G   2      20.849  41.121  39.556  1.00 80.25 LIG-0.23  N 
ATOM     21  CZ  ARG G   2      21.179  42.156  38.777  1.00 82.01 LIG 0.67  C 
ATOM     22  NH1 ARG G   2      20.388  43.226  38.663  1.00 81.47 LIG-0.23  N 
ATOM     23  NH2 ARG G   2      22.320  42.121  38.093  1.00 84.93 LIG-0.23  N 
ATOM     24 1HH1 ARG G   2      19.646  43.260  39.096  1.00 81.47 LIG 0.17  HD
ATOM     25 2HH1 ARG G   2      20.621  43.881  38.156  1.00 81.47 LIG 0.17  HD
ATOM     26 2HH2 ARG G   2      22.540  42.782  37.590  1.00 84.93 LIG 0.17  HD
ATOM     27 1HH2 ARG G   2      22.837  41.437  38.155  1.00 84.93 LIG 0.17  HD
ATOM     28 HE   ARG G   2      21.400  40.461  39.587  1.00 80.25 LIG 0.18  HD
ENDBRANCH 19 20
ENDBRANCH 18 19
ENDBRANCH 17 18
ENDBRANCH 6 17
ENDBRANCH 3 6
ENDBRANCH 1 2
BRANCH 1 29
ATOM     29  CB  THR G   3      13.699  36.180  42.317  1.00 68.23 LIG 0.15  C 
ATOM     30  CG2 THR G   3      14.178  34.998  43.139  1.00 68.63 LIG 0.04  C 
BRANCH 29 31
ATOM     31 OG1  THR G   3      12.278  36.310  42.451  1.00 67.51 LIG-0.39  OA
ATOM     32 HG1  THR G   3      12.078  36.379  43.264  1.00 67.51 LIG 0.21  HD
ENDBRANCH 29 31
ENDBRANCH 1 29
BRANCH 1 33
ATOM     33  C   THR G   3      14.457  37.520  44.293  1.00 68.02 LIG 0.24  C 
ATOM     34  N   ALA G   4      13.359  37.108  44.924  1.00 68.86 LIG-0.35  N 
ATOM     35 H    ALA G   4      12.636  36.880  44.518  1.00 68.86 LIG 0.16  HD
ATOM     36 O    THR G   3      15.468  37.915  44.877  1.00 67.54 LIG-0.27  OA
BRANCH 34 37
ATOM     37  CA  ALA G   4      13.277  37.004  46.384  1.00 69.75 LIG 0.17  C 
ATOM     38  CB  ALA G   4      14.409  36.136  46.909  1.00 70.86 LIG 0.04  C 
BRANCH 37 39
ATOM     39  C   ALA G   4      13.289  38.372  47.079  1.00 71.43 LIG 0.24  C 
ATOM     40  N   ALA G   5      12.250  38.652  47.869  1.00 71.85 LIG-0.35  N 
ATOM     41 H    ALA G   5      11.567  38.138  47.955  1.00 71.85 LIG 0.16  HD
ATOM     42 O    ALA G   4      14.229  39.151  46.897  1.00 72.80 LIG-0.27  OA
BRANCH 40 43
ATOM     43  CA  ALA G   5      12.179  39.878  48.672  1.00 72.89 LIG 0.17  C 
ATOM     44  CB  ALA G   5      13.167  39.816  49.829  1.00 72.65 LIG 0.04  C 
BRANCH 43 45
ATOM     45  C   ALA G   5      12.426  41.134  47.829  1.00 72.87 LIG 0.24  C 
ATOM     46  N   THR G   6      11.704  41.262  46.712  1.00 71.86 LIG-0.34  N 
ATOM     47 H    THR G   6      11.132  40.679  46.445  1.00 71.86 LIG 0.16  HD
ATOM     48 O    ALA G   5      13.258  41.968  48.192  1.00 74.40 LIG-0.27  OA
BRANCH 46 49
ATOM     49  CA  THR G   6      11.827  42.434  45.827  1.00 72.17 LIG 0.20  C 
BRANCH 49 50
ATOM     50  CB  THR G   6      11.711  42.057  44.332  1.00 71.29 LIG 0.15  C 
ATOM     51  CG2 THR G   6      12.615  40.873  43.998  1.00 70.64 LIG 0.04  C 
BRANCH 50 52
ATOM     52 OG1  THR G   6      10.354  41.728  44.013  1.00 70.47 LIG-0.39  OA
ATOM     53 HG1  THR G   6      10.105  42.176  43.347  1.00 70.47 LIG 0.21  HD
ENDBRANCH 50 52
ENDBRANCH 49 50
BRANCH 49 54
ATOM     54  C   THR G   6      10.796  43.525  46.150  1.00 73.53 LIG 0.24  C 
ATOM     55  N   ALA G   7       9.685  43.139  46.784  1.00 73.25 LIG-0.35  N 
ATOM     56 H    ALA G   7       9.492  42.314  46.938  1.00 73.25 LIG 0.16  HD
ATOM     57 O    THR G   6      11.011  44.692  45.812  1.00 75.15 LIG-0.27  OA
BRANCH 55 58
ATOM     58  CA  ALA G   7       8.677  44.084  47.286  1.00 74.45 LIG 0.16  C 
ATOM     59  CB  ALA G   7       7.297  43.444  47.281  1.00 73.04 LIG 0.04  C 
BRANCH 58 60
ATOM     60  C   ALA G   7       9.034  44.557  48.695  1.00 76.13 LIG 0.22  C 
ATOM     61 O    ALA G   7       9.882  43.967  49.367  1.00 77.97 LIG-0.29  OA
ENDBRANCH 58 60
ENDBRANCH 55 58
ENDBRANCH 49 54
ENDBRANCH 46 49
ENDBRANCH 43 45
ENDBRANCH 40 43
ENDBRANCH 37 39
ENDBRANCH 34 37
ENDBRANCH 1 33
TORSDOF 22
ENDMDL
MODEL 27
USER: ADFR SOLUTION from run 165
USER: SCORE 15.124520 LL:  -4.809 LR: -15.180 RR:   0.000 FEB:  -8.617
USER: RMSD 2.968677
USER: SEED 164
USER: STATUS searching
USER: GENES 24
USER: genes 0 Translation |==|  0.32052 0.47775 0.44664
USER: genes 1 Rotation |==|  0.52291 0.54264 0.55749 0.99432
USER: genes 2 Torsion [CB]-CA--N-[C] |==|  0.24268
USER: genes 3 Torsion [N]-C--CA-[N] |==|  0.52219
USER: genes 4 Torsion [C]-CA--N-[C] |==|  0.74269
USER: genes 5 Torsion [N]-C--CA-[N] |==|  0.28092
USER: genes 6 Torsion [C]-CA--N-[H1] |==|  0.69723
USER: genes 7 Torsion [C]-CA--CB-[CG] |==|  0.51810
USER: genes 8 Torsion [CA]-CB--CG-[CD] |==|  0.91373
USER: genes 9 Torsion [CB]-CG--CD-[NE] |==|  0.41001
USER: genes 10 Torsion [CG]-CD--NE-[CZ] |==|  0.57736
USER: genes 11 Torsion [N]-CA--CB-[OG1] |==|  0.54782
USER: genes 12 Torsion [CA]-CB--OG1-[HG1] |==|  0.80899
USER: genes 13 Torsion [N]-CA--C-[N] |==|  0.40177
USER: genes 14 Torsion [C]-N--CA-[CB] |==|  0.55556
USER: genes 15 Torsion [N]-CA--C-[N] |==|  0.85000
USER: genes 16 Torsion [C]-N--CA-[CB] |==|  0.52271
USER: genes 17 Torsion [N]-CA--C-[N] |==|  0.86081
USER: genes 18 Torsion [C]-N--CA-[CB] |==|  0.18958
USER: genes 19 Torsion [N]-CA--CB-[CG2] |==|  0.11343
USER: genes 20 Torsion [CA]-CB--OG1-[HG1] |==|  0.34799
USER: genes 21 Torsion [N]-CA--C-[N] |==|  0.81732
USER: genes 22 Torsion [C]-N--CA-[C] |==|  0.53404
USER: genes 23 Torsion [N]-CA--C-[O] |==|  0.39392
ROOT
ATOM      1  CA  THR G   3      14.100  37.753  42.082  1.00 68.23 LIG 0.20  C 
ENDROOT
BRANCH 1 2
ATOM      2  N   THR G   3      15.517  37.756  41.735  1.00 68.42 LIG-0.34  N 
ATOM      3  C   ARG G   2      15.971  37.451  40.522  1.00 70.38 LIG 0.24  C 
ATOM      4 O    ARG G   2      15.253  37.033  39.606  1.00 69.46 LIG-0.27  OA
ATOM      5 H    THR G   3      16.032  37.973  42.389  1.00 68.42 LIG 0.16  HD
BRANCH 3 6
ATOM      6  CA  ARG G   2      17.473  37.620  40.319  1.00 72.62 LIG 0.18  C 
BRANCH 6 7
ATOM      7  N   ARG G   2      17.788  37.434  38.905  1.00 74.86 LIG-0.35  N 
ATOM      8  C   ALA G   1      18.139  36.251  38.407  1.00 76.29 LIG 0.25  C 
ATOM      9 O    ALA G   1      18.398  35.266  39.105  1.00 75.70 LIG-0.27  OA
ATOM     10 H    ARG G   2      17.727  38.151  38.433  1.00 74.86 LIG 0.16  HD
BRANCH 8 11
ATOM     11  CA  ALA G   1      18.222  36.165  36.891  1.00 78.97 LIG 0.27  C 
ATOM     12  CB  ALA G   1      17.575  34.871  36.410  1.00 79.33 LIG 0.05  C 
BRANCH 11 13
ATOM     13  N   ALA G   1      19.638  36.246  36.438  1.00 81.42 LIG-0.07  N 
ATOM     14 H3   ALA G   1      19.805  35.587  35.863  1.00 81.42 LIG 0.28  HD
ATOM     15 H2   ALA G   1      20.179  36.169  37.141  1.00 81.42 LIG 0.28  HD
ATOM     16 H1   ALA G   1      19.779  37.029  36.040  1.00 81.42 LIG 0.28  HD
ENDBRANCH 11 13
ENDBRANCH 8 11
ENDBRANCH 6 7
BRANCH 6 17
ATOM     17  CB  ARG G   2      17.938  38.995  40.807  1.00 73.45 LIG 0.04  C 
BRANCH 17 18
ATOM     18  CG  ARG G   2      19.395  39.281  40.487  1.00 75.79 LIG 0.02  C 
BRANCH 18 19
ATOM     19  CD  ARG G   2      20.244  38.019  40.473  1.00 77.52 LIG 0.14  C 
BRANCH 19 20
ATOM     20  NE  ARG G   2      21.332  38.119  39.497  1.00 80.25 LIG-0.23  N 
ATOM     21  CZ  ARG G   2      21.906  37.092  38.862  1.00 82.01 LIG 0.67  C 
ATOM     22  NH1 ARG G   2      21.518  35.833  39.076  1.00 81.47 LIG-0.23  N 
ATOM     23  NH2 ARG G   2      22.891  37.326  38.000  1.00 84.93 LIG-0.23  N 
ATOM     24 1HH1 ARG G   2      20.885  35.667  39.634  1.00 81.47 LIG 0.17  HD
ATOM     25 2HH1 ARG G   2      21.901  35.187  38.656  1.00 81.47 LIG 0.17  HD
ATOM     26 2HH2 ARG G   2      23.266  36.672  37.587  1.00 84.93 LIG 0.17  HD
ATOM     27 1HH2 ARG G   2      23.154  38.133  37.855  1.00 84.93 LIG 0.17  HD
ATOM     28 HE   ARG G   2      21.628  38.907  39.317  1.00 80.25 LIG 0.18  HD
ENDBRANCH 19 20
ENDBRANCH 18 19
ENDBRANCH 17 18
ENDBRANCH 6 17
ENDBRANCH 3 6
ENDBRANCH 1 2
BRANCH 1 29
ATOM     29  CB  THR G   3      13.620  36.356  42.541  1.00 68.23 LIG 0.15  C 
ATOM     30  CG2 THR G   3      14.089  36.062  43.954  1.00 68.63 LIG 0.04  C 
BRANCH 29 31
ATOM     31 OG1  THR G   3      12.190  36.283  42.487  1.00 67.51 LIG-0.39  OA
ATOM     32 HG1  THR G   3      11.861  36.780  43.078  1.00 67.51 LIG 0.21  HD
ENDBRANCH 29 31
ENDBRANCH 1 29
BRANCH 1 33
ATOM     33  C   THR G   3      13.824  38.767  43.188  1.00 68.02 LIG 0.24  C 
ATOM     34  N   ALA G   4      12.653  39.399  43.115  1.00 68.86 LIG-0.35  N 
ATOM     35 H    ALA G   4      12.097  39.293  42.468  1.00 68.86 LIG 0.16  HD
ATOM     36 O    THR G   3      14.651  38.972  44.078  1.00 67.54 LIG-0.27  OA
BRANCH 34 37
ATOM     37  CA  ALA G   4      12.198  40.342  44.140  1.00 69.75 LIG 0.17  C 
ATOM     38  CB  ALA G   4      10.691  40.513  44.059  1.00 70.86 LIG 0.04  C 
BRANCH 37 39
ATOM     39  C   ALA G   4      12.611  39.925  45.557  1.00 71.43 LIG 0.24  C 
ATOM     40  N   ALA G   5      12.266  38.696  45.946  1.00 71.85 LIG-0.35  N 
ATOM     41 H    ALA G   5      11.785  38.165  45.470  1.00 71.85 LIG 0.16  HD
ATOM     42 O    ALA G   4      13.233  40.711  46.278  1.00 72.80 LIG-0.27  OA
BRANCH 40 43
ATOM     43  CA  ALA G   5      12.682  38.130  47.234  1.00 72.89 LIG 0.17  C 
ATOM     44  CB  ALA G   5      12.313  36.655  47.313  1.00 72.65 LIG 0.04  C 
BRANCH 43 45
ATOM     45  C   ALA G   5      14.181  38.319  47.490  1.00 72.87 LIG 0.24  C 
ATOM     46  N   THR G   6      15.011  37.947  46.511  1.00 71.86 LIG-0.34  N 
ATOM     47 H    THR G   6      14.748  37.603  45.769  1.00 71.86 LIG 0.16  HD
ATOM     48 O    ALA G   5      14.571  38.794  48.558  1.00 74.40 LIG-0.27  OA
BRANCH 46 49
ATOM     49  CA  THR G   6      16.472  38.099  46.620  1.00 72.17 LIG 0.20  C 
BRANCH 49 50
ATOM     50  CB  THR G   6      17.084  37.155  47.681  1.00 71.29 LIG 0.15  C 
ATOM     51  CG2 THR G   6      16.435  35.775  47.621  1.00 70.64 LIG 0.04  C 
BRANCH 50 52
ATOM     52 OG1  THR G   6      18.496  37.031  47.470  1.00 70.47 LIG-0.39  OA
ATOM     53 HG1  THR G   6      18.904  37.229  48.177  1.00 70.47 LIG 0.21  HD
ENDBRANCH 50 52
ENDBRANCH 49 50
BRANCH 49 54
ATOM     54  C   THR G   6      17.188  37.878  45.280  1.00 73.53 LIG 0.24  C 
ATOM     55  N   ALA G   7      17.132  36.647  44.761  1.00 73.25 LIG-0.35  N 
ATOM     56 H    ALA G   7      16.794  35.975  45.177  1.00 73.25 LIG 0.16  HD
ATOM     57 O    THR G   6      17.789  38.811  44.743  1.00 75.15 LIG-0.27  OA
BRANCH 55 58
ATOM     58  CA  ALA G   7      17.644  36.317  43.423  1.00 74.45 LIG 0.16  C 
ATOM     59  CB  ALA G   7      19.164  36.387  43.402  1.00 73.04 LIG 0.04  C 
BRANCH 58 60
ATOM     60  C   ALA G   7      17.174  34.928  42.993  1.00 76.13 LIG 0.22  C 
ATOM     61 O    ALA G   7      16.850  34.700  41.826  1.00 77.97 LIG-0.29  OA
ENDBRANCH 58 60
ENDBRANCH 55 58
ENDBRANCH 49 54
ENDBRANCH 46 49
ENDBRANCH 43 45
ENDBRANCH 40 43
ENDBRANCH 37 39
ENDBRANCH 34 37
ENDBRANCH 1 33
TORSDOF 22
ENDMDL
MODEL 28
USER: ADFR SOLUTION from run 68
USER: SCORE 16.388773 LL:  -3.227 LR: -15.174 RR:   0.000 FEB:  -8.611
USER: RMSD 4.689562
USER: SEED 67
USER: STATUS no improvement in best in 22 clusters for 5 generations
USER: GENES 24
USER: genes 0 Translation |==|  0.32948 0.49079 0.44922
USER: genes 1 Rotation |==|  0.48276 0.55170 0.55933 0.99347
USER: genes 2 Torsion [CB]-CA--N-[C] |==|  0.26191
USER: genes 3 Torsion [N]-C--CA-[N] |==|  0.52304
USER: genes 4 Torsion [C]-CA--N-[C] |==|  0.76115
USER: genes 5 Torsion [N]-C--CA-[N] |==|  0.25982
USER: genes 6 Torsion [C]-CA--N-[H1] |==|  0.69811
USER: genes 7 Torsion [C]-CA--CB-[CG] |==|  0.50986
USER: genes 8 Torsion [CA]-CB--CG-[CD] |==|  0.92978
USER: genes 9 Torsion [CB]-CG--CD-[NE] |==|  0.40564
USER: genes 10 Torsion [CG]-CD--NE-[CZ] |==|  0.56755
USER: genes 11 Torsion [N]-CA--CB-[OG1] |==|  0.58746
USER: genes 12 Torsion [CA]-CB--OG1-[HG1] |==|  0.72622
USER: genes 13 Torsion [N]-CA--C-[N] |==|  0.44210
USER: genes 14 Torsion [C]-N--CA-[CB] |==|  0.51667
USER: genes 15 Torsion [N]-CA--C-[N] |==|  0.43112
USER: genes 16 Torsion [C]-N--CA-[CB] |==|  0.17430
USER: genes 17 Torsion [N]-CA--C-[N] |==|  0.13036
USER: genes 18 Torsion [C]-N--CA-[CB] |==|  0.85961
USER: genes 19 Torsion [N]-CA--CB-[CG2] |==|  0.55538
USER: genes 20 Torsion [CA]-CB--OG1-[HG1] |==|  0.24797
USER: genes 21 Torsion [N]-CA--C-[N] |==|  0.89443
USER: genes 22 Torsion [C]-N--CA-[C] |==|  0.80465
USER: genes 23 Torsion [N]-CA--C-[O] |==|  0.97950
ROOT
ATOM      1  CA  THR G   3      14.301  37.988  42.135  1.00 68.23 LIG 0.20  C 
ENDROOT
BRANCH 1 2
ATOM      2  N   THR G   3      15.713  37.965  41.765  1.00 68.42 LIG-0.34  N 
ATOM      3  C   ARG G   2      16.144  37.602  40.559  1.00 70.38 LIG 0.24  C 
ATOM      4 O    ARG G   2      15.409  37.148  39.675  1.00 69.46 LIG-0.27  OA
ATOM      5 H    THR G   3      16.240  38.208  42.399  1.00 68.42 LIG 0.16  HD
BRANCH 3 6
ATOM      6  CA  ARG G   2      17.644  37.751  40.324  1.00 72.62 LIG 0.18  C 
BRANCH 6 7
ATOM      7  N   ARG G   2      17.934  37.507  38.914  1.00 74.86 LIG-0.35  N 
ATOM      8  C   ALA G   1      18.141  36.283  38.435  1.00 76.29 LIG 0.25  C 
ATOM      9 O    ALA G   1      18.281  35.285  39.148  1.00 75.70 LIG-0.27  OA
ATOM     10 H    ARG G   2      17.958  38.219  38.431  1.00 74.86 LIG 0.16  HD
BRANCH 8 11
ATOM     11  CA  ALA G   1      18.211  36.163  36.920  1.00 78.97 LIG 0.27  C 
ATOM     12  CB  ALA G   1      17.576  34.850  36.475  1.00 79.33 LIG 0.05  C 
BRANCH 11 13
ATOM     13  N   ALA G   1      19.622  36.251  36.453  1.00 81.42 LIG-0.07  N 
ATOM     14 H3   ALA G   1      19.790  35.584  35.888  1.00 81.42 LIG 0.28  HD
ATOM     15 H2   ALA G   1      20.170  36.193  37.152  1.00 81.42 LIG 0.28  HD
ATOM     16 H1   ALA G   1      19.750  37.029  36.040  1.00 81.42 LIG 0.28  HD
ENDBRANCH 11 13
ENDBRANCH 8 11
ENDBRANCH 6 7
BRANCH 6 17
ATOM     17  CB  ARG G   2      18.128  39.141  40.749  1.00 73.45 LIG 0.04  C 
BRANCH 17 18
ATOM     18  CG  ARG G   2      19.600  39.377  40.458  1.00 75.79 LIG 0.02  C 
BRANCH 18 19
ATOM     19  CD  ARG G   2      20.394  38.081  40.401  1.00 77.52 LIG 0.14  C 
BRANCH 19 20
ATOM     20  NE  ARG G   2      21.475  38.160  39.416  1.00 80.25 LIG-0.23  N 
ATOM     21  CZ  ARG G   2      22.043  37.120  38.797  1.00 82.01 LIG 0.67  C 
ATOM     22  NH1 ARG G   2      21.655  35.866  39.038  1.00 81.47 LIG-0.23  N 
ATOM     23  NH2 ARG G   2      23.023  37.337  37.924  1.00 84.93 LIG-0.23  N 
ATOM     24 1HH1 ARG G   2      21.025  35.711  39.604  1.00 81.47 LIG 0.17  HD
ATOM     25 2HH1 ARG G   2      22.035  35.212  38.628  1.00 81.47 LIG 0.17  HD
ATOM     26 2HH2 ARG G   2      23.394  36.674  37.520  1.00 84.93 LIG 0.17  HD
ATOM     27 1HH2 ARG G   2      23.285  38.140  37.762  1.00 84.93 LIG 0.17  HD
ATOM     28 HE   ARG G   2      21.770  38.944  39.219  1.00 80.25 LIG 0.18  HD
ENDBRANCH 19 20
ENDBRANCH 18 19
ENDBRANCH 17 18
ENDBRANCH 6 17
ENDBRANCH 3 6
ENDBRANCH 1 2
BRANCH 1 29
ATOM     29  CB  THR G   3      13.863  36.673  42.822  1.00 68.23 LIG 0.15  C 
ATOM     30  CG2 THR G   3      14.046  36.764  44.325  1.00 68.63 LIG 0.04  C 
BRANCH 29 31
ATOM     31 OG1  THR G   3      12.489  36.395  42.523  1.00 67.51 LIG-0.39  OA
ATOM     32 HG1  THR G   3      12.007  36.646  43.164  1.00 67.51 LIG 0.21  HD
ENDBRANCH 29 31
ENDBRANCH 1 29
BRANCH 1 33
ATOM     33  C   THR G   3      14.018  39.161  43.067  1.00 68.02 LIG 0.24  C 
ATOM     34  N   ALA G   4      12.747  39.554  43.133  1.00 68.86 LIG-0.35  N 
ATOM     35 H    ALA G   4      12.121  39.214  42.652  1.00 68.86 LIG 0.16  HD
ATOM     36 O    THR G   3      14.927  39.696  43.704  1.00 67.54 LIG-0.27  OA
BRANCH 34 37
ATOM     37  CA  ALA G   4      12.292  40.612  44.040  1.00 69.75 LIG 0.17  C 
ATOM     38  CB  ALA G   4      10.778  40.726  43.989  1.00 70.86 LIG 0.04  C 
BRANCH 37 39
ATOM     39  C   ALA G   4      12.761  40.399  45.485  1.00 71.43 LIG 0.24  C 
ATOM     40  N   ALA G   5      12.856  41.488  46.252  1.00 71.85 LIG-0.35  N 
ATOM     41 H    ALA G   5      12.727  42.286  45.960  1.00 71.85 LIG 0.16  HD
ATOM     42 O    ALA G   4      13.028  39.264  45.889  1.00 72.80 LIG-0.27  OA
BRANCH 40 43
ATOM     43  CA  ALA G   5      13.195  41.421  47.678  1.00 72.89 LIG 0.17  C 
ATOM     44  CB  ALA G   5      14.591  40.841  47.867  1.00 72.65 LIG 0.04  C 
BRANCH 43 45
ATOM     45  C   ALA G   5      13.090  42.789  48.359  1.00 72.87 LIG 0.24  C 
ATOM     46  N   THR G   6      11.989  43.503  48.111  1.00 71.86 LIG-0.34  N 
ATOM     47 H    THR G   6      11.359  43.242  47.588  1.00 71.86 LIG 0.16  HD
ATOM     48 O    ALA G   5      13.996  43.183  49.096  1.00 74.40 LIG-0.27  OA
BRANCH 46 49
ATOM     49  CA  THR G   6      11.754  44.822  48.724  1.00 72.17 LIG 0.20  C 
BRANCH 49 50
ATOM     50  CB  THR G   6      11.947  44.802  50.258  1.00 71.29 LIG 0.15  C 
ATOM     51  CG2 THR G   6      11.245  45.990  50.911  1.00 70.64 LIG 0.04  C 
BRANCH 50 52
ATOM     52 OG1  THR G   6      11.430  43.582  50.801  1.00 70.47 LIG-0.39  OA
ATOM     53 HG1  THR G   6      12.034  42.998  50.804  1.00 70.47 LIG 0.21  HD
ENDBRANCH 50 52
ENDBRANCH 49 50
BRANCH 49 54
ATOM     54  C   THR G   6      12.645  45.918  48.121  1.00 73.53 LIG 0.24  C 
ATOM     55  N   ALA G   7      13.899  45.575  47.812  1.00 73.25 LIG-0.35  N 
ATOM     56 H    ALA G   7      14.242  44.811  48.010  1.00 73.25 LIG 0.16  HD
ATOM     57 O    THR G   6      12.196  47.055  47.958  1.00 75.15 LIG-0.27  OA
BRANCH 55 58
ATOM     58  CA  ALA G   7      14.823  46.469  47.099  1.00 74.45 LIG 0.16  C 
ATOM     59  CB  ALA G   7      16.245  45.930  47.168  1.00 73.04 LIG 0.04  C 
BRANCH 58 60
ATOM     60  C   ALA G   7      14.394  46.639  45.642  1.00 76.13 LIG 0.22  C 
ATOM     61 O    ALA G   7      13.478  45.966  45.167  1.00 77.97 LIG-0.29  OA
ENDBRANCH 58 60
ENDBRANCH 55 58
ENDBRANCH 49 54
ENDBRANCH 46 49
ENDBRANCH 43 45
ENDBRANCH 40 43
ENDBRANCH 37 39
ENDBRANCH 34 37
ENDBRANCH 1 33
TORSDOF 22
ENDMDL
MODEL 29
USER: ADFR SOLUTION from run 37
USER: SCORE 15.024147 LL:  -3.056 LR: -15.140 RR:   0.000 FEB:  -8.577
USER: RMSD 4.338286
USER: SEED 36
USER: STATUS no improvement in best in 18 clusters for 5 generations
USER: GENES 24
USER: genes 0 Translation |==|  0.32007 0.48635 0.45718
USER: genes 1 Rotation |==|  0.53692 0.53130 0.56856 0.99291
USER: genes 2 Torsion [CB]-CA--N-[C] |==|  0.23451
USER: genes 3 Torsion [N]-C--CA-[N] |==|  0.51498
USER: genes 4 Torsion [C]-CA--N-[C] |==|  0.75547
USER: genes 5 Torsion [N]-C--CA-[N] |==|  0.26299
USER: genes 6 Torsion [C]-CA--N-[H1] |==|  0.52030
USER: genes 7 Torsion [C]-CA--CB-[CG] |==|  0.52334
USER: genes 8 Torsion [CA]-CB--CG-[CD] |==|  0.35685
USER: genes 9 Torsion [CB]-CG--CD-[NE] |==|  0.55793
USER: genes 10 Torsion [CG]-CD--NE-[CZ] |==|  0.50951
USER: genes 11 Torsion [N]-CA--CB-[OG1] |==|  0.54452
USER: genes 12 Torsion [CA]-CB--OG1-[HG1] |==|  0.75838
USER: genes 13 Torsion [N]-CA--C-[N] |==|  0.36746
USER: genes 14 Torsion [C]-N--CA-[CB] |==|  0.53979
USER: genes 15 Torsion [N]-CA--C-[N] |==|  0.93478
USER: genes 16 Torsion [C]-N--CA-[CB] |==|  0.53727
USER: genes 17 Torsion [N]-CA--C-[N] |==|  0.44669
USER: genes 18 Torsion [C]-N--CA-[CB] |==|  0.22358
USER: genes 19 Torsion [N]-CA--CB-[CG2] |==|  0.74367
USER: genes 20 Torsion [CA]-CB--OG1-[HG1] |==|  0.40057
USER: genes 21 Torsion [N]-CA--C-[N] |==|  0.00175
USER: genes 22 Torsion [C]-N--CA-[C] |==|  0.76556
USER: genes 23 Torsion [N]-CA--C-[O] |==|  0.01687
ROOT
ATOM      1  CA  THR G   3      14.090  37.908  42.296  1.00 68.23 LIG 0.20  C 
ENDROOT
BRANCH 1 2
ATOM      2  N   THR G   3      15.518  37.985  42.008  1.00 68.42 LIG-0.34  N 
ATOM      3  C   ARG G   2      16.036  37.721  40.811  1.00 70.38 LIG 0.24  C 
ATOM      4 O    ARG G   2      15.378  37.283  39.860  1.00 69.46 LIG-0.27  OA
ATOM      5 H    THR G   3      15.995  38.216  42.685  1.00 68.42 LIG 0.16  HD
BRANCH 3 6
ATOM      6  CA  ARG G   2      17.535  37.966  40.673  1.00 72.62 LIG 0.18  C 
BRANCH 6 7
ATOM      7  N   ARG G   2      17.928  37.757  39.282  1.00 74.86 LIG-0.35  N 
ATOM      8  C   ALA G   1      18.279  36.561  38.816  1.00 76.29 LIG 0.25  C 
ATOM      9 O    ALA G   1      18.473  35.578  39.538  1.00 75.70 LIG-0.27  OA
ATOM     10 H    ARG G   2      17.910  38.470  38.800  1.00 74.86 LIG 0.16  HD
BRANCH 8 11
ATOM     11  CA  ALA G   1      18.447  36.455  37.309  1.00 78.97 LIG 0.27  C 
ATOM     12  CB  ALA G   1      17.943  35.100  36.825  1.00 79.33 LIG 0.05  C 
BRANCH 11 13
ATOM     13  N   ALA G   1      19.873  36.654  36.926  1.00 81.42 LIG-0.07  N 
ATOM     14 H3   ALA G   1      20.360  35.973  37.229  1.00 81.42 LIG 0.28  HD
ATOM     15 H2   ALA G   1      20.172  37.413  37.281  1.00 81.42 LIG 0.28  HD
ATOM     16 H1   ALA G   1      19.939  36.695  36.040  1.00 81.42 LIG 0.28  HD
ENDBRANCH 11 13
ENDBRANCH 8 11
ENDBRANCH 6 7
BRANCH 6 17
ATOM     17  CB  ARG G   2      17.903  39.378  41.139  1.00 73.45 LIG 0.04  C 
BRANCH 17 18
ATOM     18  CG  ARG G   2      19.344  39.750  40.837  1.00 75.79 LIG 0.02  C 
BRANCH 18 19
ATOM     19  CD  ARG G   2      19.458  41.081  40.109  1.00 77.52 LIG 0.14  C 
BRANCH 19 20
ATOM     20  NE  ARG G   2      20.738  41.195  39.405  1.00 80.25 LIG-0.23  N 
ATOM     21  CZ  ARG G   2      21.162  42.268  38.730  1.00 82.01 LIG 0.67  C 
ATOM     22  NH1 ARG G   2      20.419  43.374  38.635  1.00 81.47 LIG-0.23  N 
ATOM     23  NH2 ARG G   2      22.349  42.235  38.131  1.00 84.93 LIG-0.23  N 
ATOM     24 1HH1 ARG G   2      19.648  43.407  39.014  1.00 81.47 LIG 0.17  HD
ATOM     25 2HH1 ARG G   2      20.713  44.052  38.196  1.00 81.47 LIG 0.17  HD
ATOM     26 2HH2 ARG G   2      22.631  42.920  37.695  1.00 84.93 LIG 0.17  HD
ATOM     27 1HH2 ARG G   2      22.837  41.528  38.181  1.00 84.93 LIG 0.17  HD
ATOM     28 HE   ARG G   2      21.262  40.513  39.428  1.00 80.25 LIG 0.18  HD
ENDBRANCH 19 20
ENDBRANCH 18 19
ENDBRANCH 17 18
ENDBRANCH 6 17
ENDBRANCH 3 6
ENDBRANCH 1 2
BRANCH 1 29
ATOM     29  CB  THR G   3      13.647  36.467  42.644  1.00 68.23 LIG 0.15  C 
ATOM     30  CG2 THR G   3      14.097  36.089  44.043  1.00 68.63 LIG 0.04  C 
BRANCH 29 31
ATOM     31 OG1  THR G   3      12.221  36.353  42.554  1.00 67.51 LIG-0.39  OA
ATOM     32 HG1  THR G   3      11.876  36.575  43.286  1.00 67.51 LIG 0.21  HD
ENDBRANCH 29 31
ENDBRANCH 1 29
BRANCH 1 33
ATOM     33  C   THR G   3      13.732  38.837  43.451  1.00 68.02 LIG 0.24  C 
ATOM     34  N   ALA G   4      12.673  39.621  43.258  1.00 68.86 LIG-0.35  N 
ATOM     35 H    ALA G   4      12.236  39.652  42.518  1.00 68.86 LIG 0.16  HD
ATOM     36 O    THR G   3      14.401  38.844  44.487  1.00 67.54 LIG-0.27  OA
BRANCH 34 37
ATOM     37  CA  ALA G   4      12.147  40.511  44.296  1.00 69.75 LIG 0.17  C 
ATOM     38  CB  ALA G   4      10.759  40.997  43.912  1.00 70.86 LIG 0.04  C 
BRANCH 37 39
ATOM     39  C   ALA G   4      12.117  39.856  45.683  1.00 71.43 LIG 0.24  C 
ATOM     40  N   ALA G   5      12.082  38.522  45.715  1.00 71.85 LIG-0.35  N 
ATOM     41 H    ALA G   5      12.018  38.031  45.012  1.00 71.85 LIG 0.16  HD
ATOM     42 O    ALA G   4      12.127  40.556  46.699  1.00 72.80 LIG-0.27  OA
BRANCH 40 43
ATOM     43  CA  ALA G   5      12.151  37.762  46.968  1.00 72.89 LIG 0.17  C 
ATOM     44  CB  ALA G   5      12.422  36.290  46.685  1.00 72.65 LIG 0.04  C 
BRANCH 43 45
ATOM     45  C   ALA G   5      13.209  38.323  47.925  1.00 72.87 LIG 0.24  C 
ATOM     46  N   THR G   6      13.098  37.984  49.212  1.00 71.86 LIG-0.34  N 
ATOM     47 H    THR G   6      12.467  37.489  49.522  1.00 71.86 LIG 0.16  HD
ATOM     48 O    ALA G   5      14.107  39.050  47.495  1.00 74.40 LIG-0.27  OA
BRANCH 46 49
ATOM     49  CA  THR G   6      14.064  38.436  50.229  1.00 72.17 LIG 0.20  C 
BRANCH 49 50
ATOM     50  CB  THR G   6      13.786  39.881  50.704  1.00 71.29 LIG 0.15  C 
ATOM     51  CG2 THR G   6      14.582  40.888  49.877  1.00 70.64 LIG 0.04  C 
BRANCH 50 52
ATOM     52 OG1  THR G   6      12.387  40.172  50.597  1.00 70.47 LIG-0.39  OA
ATOM     53 HG1  THR G   6      12.154  40.666  51.235  1.00 70.47 LIG 0.21  HD
ENDBRANCH 50 52
ENDBRANCH 49 50
BRANCH 49 54
ATOM     54  C   THR G   6      14.108  37.507  51.451  1.00 73.53 LIG 0.24  C 
ATOM     55  N   ALA G   7      13.304  36.440  51.429  1.00 73.25 LIG-0.35  N 
ATOM     56 H    ALA G   7      12.718  36.304  50.814  1.00 73.25 LIG 0.16  HD
ATOM     57 O    THR G   6      14.853  37.773  52.397  1.00 75.15 LIG-0.27  OA
BRANCH 55 58
ATOM     58  CA  ALA G   7      13.339  35.388  52.456  1.00 74.45 LIG 0.16  C 
ATOM     59  CB  ALA G   7      11.982  34.708  52.567  1.00 73.04 LIG 0.04  C 
BRANCH 58 60
ATOM     60  C   ALA G   7      14.420  34.357  52.135  1.00 76.13 LIG 0.22  C 
ATOM     61 O    ALA G   7      15.198  34.523  51.194  1.00 77.97 LIG-0.29  OA
ENDBRANCH 58 60
ENDBRANCH 55 58
ENDBRANCH 49 54
ENDBRANCH 46 49
ENDBRANCH 43 45
ENDBRANCH 40 43
ENDBRANCH 37 39
ENDBRANCH 34 37
ENDBRANCH 1 33
TORSDOF 22
ENDMDL
MODEL 30
USER: ADFR SOLUTION from run 187
USER: SCORE 17.277281 LL:  -4.092 LR: -15.134 RR:   0.000 FEB:  -8.572
USER: RMSD 3.863612
USER: SEED 186
USER: STATUS searching
USER: GENES 24
USER: genes 0 Translation |==|  0.33002 0.42509 0.46753
USER: genes 1 Rotation |==|  0.69280 0.54782 0.53770 0.95730
USER: genes 2 Torsion [CB]-CA--N-[C] |==|  0.21765
USER: genes 3 Torsion [N]-C--CA-[N] |==|  0.46105
USER: genes 4 Torsion [C]-CA--N-[C] |==|  0.75730
USER: genes 5 Torsion [N]-C--CA-[N] |==|  0.09748
USER: genes 6 Torsion [C]-CA--N-[H1] |==|  0.74629
USER: genes 7 Torsion [C]-CA--CB-[CG] |==|  0.52374
USER: genes 8 Torsion [CA]-CB--CG-[CD] |==|  0.89846
USER: genes 9 Torsion [CB]-CG--CD-[NE] |==|  0.41096
USER: genes 10 Torsion [CG]-CD--NE-[CZ] |==|  0.56535
USER: genes 11 Torsion [N]-CA--CB-[OG1] |==|  0.56229
USER: genes 12 Torsion [CA]-CB--OG1-[HG1] |==|  0.60603
USER: genes 13 Torsion [N]-CA--C-[N] |==|  0.50832
USER: genes 14 Torsion [C]-N--CA-[CB] |==|  0.86920
USER: genes 15 Torsion [N]-CA--C-[N] |==|  0.33310
USER: genes 16 Torsion [C]-N--CA-[CB] |==|  0.77777
USER: genes 17 Torsion [N]-CA--C-[N] |==|  0.13520
USER: genes 18 Torsion [C]-N--CA-[CB] |==|  0.86881
USER: genes 19 Torsion [N]-CA--CB-[CG2] |==|  0.39960
USER: genes 20 Torsion [CA]-CB--OG1-[HG1] |==|  0.26134
USER: genes 21 Torsion [N]-CA--C-[N] |==|  0.89439
USER: genes 22 Torsion [C]-N--CA-[C] |==|  0.83774
USER: genes 23 Torsion [N]-CA--C-[O] |==|  0.20295
ROOT
ATOM      1  CA  THR G   3      14.313  36.806  42.505  1.00 68.23 LIG 0.20  C 
ENDROOT
BRANCH 1 2
ATOM      2  N   THR G   3      15.688  36.925  42.031  1.00 68.42 LIG-0.34  N 
ATOM      3  C   ARG G   2      16.002  37.264  40.783  1.00 70.38 LIG 0.24  C 
ATOM      4 O    ARG G   2      15.169  37.403  39.880  1.00 69.46 LIG-0.27  OA
ATOM      5 H    THR G   3      16.277  36.756  42.634  1.00 68.42 LIG 0.16  HD
BRANCH 3 6
ATOM      6  CA  ARG G   2      17.490  37.449  40.504  1.00 72.62 LIG 0.18  C 
BRANCH 6 7
ATOM      7  N   ARG G   2      17.706  37.484  39.061  1.00 74.86 LIG-0.35  N 
ATOM      8  C   ALA G   1      17.898  36.377  38.346  1.00 76.29 LIG 0.25  C 
ATOM      9 O    ALA G   1      18.085  35.265  38.848  1.00 75.70 LIG-0.27  OA
ATOM     10 H    ARG G   2      17.697  38.275  38.722  1.00 74.86 LIG 0.16  HD
BRANCH 8 11
ATOM     11  CA  ALA G   1      17.888  36.550  36.835  1.00 78.97 LIG 0.27  C 
ATOM     12  CB  ALA G   1      18.641  35.399  36.178  1.00 79.33 LIG 0.05  C 
BRANCH 11 13
ATOM     13  N   ALA G   1      18.488  37.858  36.454  1.00 81.42 LIG-0.07  N 
ATOM     14 H3   ALA G   1      18.888  37.782  35.662  1.00 81.42 LIG 0.28  HD
ATOM     15 H2   ALA G   1      19.087  38.100  37.066  1.00 81.42 LIG 0.28  HD
ATOM     16 H1   ALA G   1      17.849  38.475  36.405  1.00 81.42 LIG 0.28  HD
ENDBRANCH 11 13
ENDBRANCH 8 11
ENDBRANCH 6 7
BRANCH 6 17
ATOM     17  CB  ARG G   2      18.014  38.728  41.166  1.00 73.45 LIG 0.04  C 
BRANCH 17 18
ATOM     18  CG  ARG G   2      19.435  39.074  40.756  1.00 75.79 LIG 0.02  C 
BRANCH 18 19
ATOM     19  CD  ARG G   2      20.304  37.839  40.577  1.00 77.52 LIG 0.14  C 
BRANCH 19 20
ATOM     20  NE  ARG G   2      21.313  38.043  39.535  1.00 80.25 LIG-0.23  N 
ATOM     21  CZ  ARG G   2      21.916  37.077  38.835  1.00 82.01 LIG 0.67  C 
ATOM     22  NH1 ARG G   2      21.636  35.787  39.039  1.00 81.47 LIG-0.23  N 
ATOM     23  NH2 ARG G   2      22.821  37.404  37.917  1.00 84.93 LIG-0.23  N 
ATOM     24 1HH1 ARG G   2      21.056  35.561  39.632  1.00 81.47 LIG 0.17  HD
ATOM     25 2HH1 ARG G   2      22.037  35.182  38.576  1.00 81.47 LIG 0.17  HD
ATOM     26 2HH2 ARG G   2      23.214  36.789  37.461  1.00 84.93 LIG 0.17  HD
ATOM     27 1HH2 ARG G   2      23.013  38.231  37.778  1.00 84.93 LIG 0.17  HD
ATOM     28 HE   ARG G   2      21.537  38.855  39.359  1.00 80.25 LIG 0.18  HD
ENDBRANCH 19 20
ENDBRANCH 18 19
ENDBRANCH 17 18
ENDBRANCH 6 17
ENDBRANCH 3 6
ENDBRANCH 1 2
BRANCH 1 29
ATOM     29  CB  THR G   3      13.663  35.475  42.060  1.00 68.23 LIG 0.15  C 
ATOM     30  CG2 THR G   3      14.079  34.338  42.975  1.00 68.63 LIG 0.04  C 
BRANCH 29 31
ATOM     31 OG1  THR G   3      12.235  35.596  42.068  1.00 67.51 LIG-0.39  OA
ATOM     32 HG1  THR G   3      11.894  34.879  42.343  1.00 67.51 LIG 0.21  HD
ENDBRANCH 29 31
ENDBRANCH 1 29
BRANCH 1 33
ATOM     33  C   THR G   3      14.268  36.903  44.026  1.00 68.02 LIG 0.24  C 
ATOM     34  N   ALA G   4      13.068  36.745  44.581  1.00 68.86 LIG-0.35  N 
ATOM     35 H    ALA G   4      12.345  36.643  44.126  1.00 68.86 LIG 0.16  HD
ATOM     36 O    THR G   3      15.293  37.119  44.677  1.00 67.54 LIG-0.27  OA
BRANCH 34 37
ATOM     37  CA  ALA G   4      12.863  36.729  46.032  1.00 69.75 LIG 0.17  C 
ATOM     38  CB  ALA G   4      13.883  35.817  46.693  1.00 70.86 LIG 0.04  C 
BRANCH 37 39
ATOM     39  C   ALA G   4      12.917  38.129  46.656  1.00 71.43 LIG 0.24  C 
ATOM     40  N   ALA G   5      11.821  38.544  47.295  1.00 71.85 LIG-0.35  N 
ATOM     41 H    ALA G   5      11.087  38.097  47.318  1.00 71.85 LIG 0.16  HD
ATOM     42 O    ALA G   4      13.940  38.812  46.557  1.00 72.80 LIG-0.27  OA
BRANCH 40 43
ATOM     43  CA  ALA G   5      11.766  39.817  48.022  1.00 72.89 LIG 0.17  C 
ATOM     44  CB  ALA G   5      12.416  39.676  49.392  1.00 72.65 LIG 0.04  C 
BRANCH 43 45
ATOM     45  C   ALA G   5      12.423  40.958  47.237  1.00 72.87 LIG 0.24  C 
ATOM     46  N   THR G   6      12.063  41.094  45.957  1.00 71.86 LIG-0.34  N 
ATOM     47 H    THR G   6      11.505  40.574  45.561  1.00 71.86 LIG 0.16  HD
ATOM     48 O    ALA G   5      13.240  41.698  47.788  1.00 74.40 LIG-0.27  OA
BRANCH 46 49
ATOM     49  CA  THR G   6      12.601  42.165  45.100  1.00 72.17 LIG 0.20  C 
BRANCH 49 50
ATOM     50  CB  THR G   6      12.558  43.548  45.789  1.00 71.29 LIG 0.15  C 
ATOM     51  CG2 THR G   6      13.779  44.383  45.411  1.00 70.64 LIG 0.04  C 
BRANCH 50 52
ATOM     52 OG1  THR G   6      11.365  44.246  45.413  1.00 70.47 LIG-0.39  OA
ATOM     53 HG1  THR G   6      10.767  44.109  45.987  1.00 70.47 LIG 0.21  HD
ENDBRANCH 50 52
ENDBRANCH 49 50
BRANCH 49 54
ATOM     54  C   THR G   6      14.037  41.881  44.635  1.00 73.53 LIG 0.24  C 
ATOM     55  N   ALA G   7      14.856  41.303  45.520  1.00 73.25 LIG-0.35  N 
ATOM     56 H    ALA G   7      14.641  41.167  46.342  1.00 73.25 LIG 0.16  HD
ATOM     57 O    THR G   6      14.388  42.198  43.497  1.00 75.15 LIG-0.27  OA
BRANCH 55 58
ATOM     58  CA  ALA G   7      16.209  40.842  45.179  1.00 74.45 LIG 0.16  C 
ATOM     59  CB  ALA G   7      16.893  40.246  46.401  1.00 73.04 LIG 0.04  C 
BRANCH 58 60
ATOM     60  C   ALA G   7      16.159  39.813  44.049  1.00 76.13 LIG 0.22  C 
ATOM     61 O    ALA G   7      15.914  40.152  42.891  1.00 77.97 LIG-0.29  OA
ENDBRANCH 58 60
ENDBRANCH 55 58
ENDBRANCH 49 54
ENDBRANCH 46 49
ENDBRANCH 43 45
ENDBRANCH 40 43
ENDBRANCH 37 39
ENDBRANCH 34 37
ENDBRANCH 1 33
TORSDOF 22
ENDMDL
MODEL 31
USER: ADFR SOLUTION from run 189
USER: SCORE 15.890105 LL:  -3.768 LR: -15.095 RR:   0.000 FEB:  -8.532
USER: RMSD 3.441846
USER: SEED 188
USER: STATUS no improvement in best in 25 clusters for 5 generations
USER: GENES 24
USER: genes 0 Translation |==|  0.32498 0.43361 0.45525
USER: genes 1 Rotation |==|  0.66590 0.55056 0.57531 0.96287
USER: genes 2 Torsion [CB]-CA--N-[C] |==|  0.18594
USER: genes 3 Torsion [N]-C--CA-[N] |==|  0.47778
USER: genes 4 Torsion [C]-CA--N-[C] |==|  0.76234
USER: genes 5 Torsion [N]-C--CA-[N] |==|  0.30524
USER: genes 6 Torsion [C]-CA--N-[H1] |==|  0.70375
USER: genes 7 Torsion [C]-CA--CB-[CG] |==|  0.54858
USER: genes 8 Torsion [CA]-CB--CG-[CD] |==|  0.82622
USER: genes 9 Torsion [CB]-CG--CD-[NE] |==|  0.34100
USER: genes 10 Torsion [CG]-CD--NE-[CZ] |==|  0.63210
USER: genes 11 Torsion [N]-CA--CB-[OG1] |==|  0.54569
USER: genes 12 Torsion [CA]-CB--OG1-[HG1] |==|  0.64313
USER: genes 13 Torsion [N]-CA--C-[N] |==|  0.53379
USER: genes 14 Torsion [C]-N--CA-[CB] |==|  0.81910
USER: genes 15 Torsion [N]-CA--C-[N] |==|  0.13185
USER: genes 16 Torsion [C]-N--CA-[CB] |==|  0.87834
USER: genes 17 Torsion [N]-CA--C-[N] |==|  0.81385
USER: genes 18 Torsion [C]-N--CA-[CB] |==|  0.83169
USER: genes 19 Torsion [N]-CA--CB-[CG2] |==|  0.53944
USER: genes 20 Torsion [CA]-CB--OG1-[HG1] |==|  0.05996
USER: genes 21 Torsion [N]-CA--C-[N] |==|  0.79626
USER: genes 22 Torsion [C]-N--CA-[C] |==|  0.58954
USER: genes 23 Torsion [N]-CA--C-[O] |==|  0.09833
ROOT
ATOM      1  CA  THR G   3      14.200  36.959  42.257  1.00 68.23 LIG 0.20  C 
ENDROOT
BRANCH 1 2
ATOM      2  N   THR G   3      15.570  37.244  41.843  1.00 68.42 LIG-0.34  N 
ATOM      3  C   ARG G   2      15.951  37.297  40.569  1.00 70.38 LIG 0.24  C 
ATOM      4 O    ARG G   2      15.215  37.005  39.620  1.00 69.46 LIG-0.27  OA
ATOM      5 H    THR G   3      16.109  37.375  42.501  1.00 68.42 LIG 0.16  HD
BRANCH 3 6
ATOM      6  CA  ARG G   2      17.397  37.721  40.331  1.00 72.62 LIG 0.18  C 
BRANCH 6 7
ATOM      7  N   ARG G   2      17.719  37.550  38.918  1.00 74.86 LIG-0.35  N 
ATOM      8  C   ALA G   1      18.137  36.387  38.422  1.00 76.29 LIG 0.25  C 
ATOM      9 O    ALA G   1      18.454  35.421  39.123  1.00 75.70 LIG-0.27  OA
ATOM     10 H    ARG G   2      17.616  38.260  38.444  1.00 74.86 LIG 0.16  HD
BRANCH 8 11
ATOM     11  CA  ALA G   1      18.221  36.300  36.907  1.00 78.97 LIG 0.27  C 
ATOM     12  CB  ALA G   1      17.458  35.075  36.416  1.00 79.33 LIG 0.05  C 
BRANCH 11 13
ATOM     13  N   ALA G   1      19.641  36.248  36.463  1.00 81.42 LIG-0.07  N 
ATOM     14 H3   ALA G   1      19.742  35.601  35.860  1.00 81.42 LIG 0.28  HD
ATOM     15 H2   ALA G   1      20.165  36.084  37.164  1.00 81.42 LIG 0.28  HD
ATOM     16 H1   ALA G   1      19.868  37.029  36.100  1.00 81.42 LIG 0.28  HD
ENDBRANCH 11 13
ENDBRANCH 8 11
ENDBRANCH 6 7
BRANCH 6 17
ATOM     17  CB  ARG G   2      17.620  39.172  40.770  1.00 73.45 LIG 0.04  C 
BRANCH 17 18
ATOM     18  CG  ARG G   2      18.881  39.786  40.189  1.00 75.79 LIG 0.02  C 
BRANCH 18 19
ATOM     19  CD  ARG G   2      20.140  39.065  40.647  1.00 77.52 LIG 0.14  C 
BRANCH 19 20
ATOM     20  NE  ARG G   2      20.919  38.576  39.507  1.00 80.25 LIG-0.23  N 
ATOM     21  CZ  ARG G   2      21.428  37.346  39.383  1.00 82.01 LIG 0.67  C 
ATOM     22  NH1 ARG G   2      21.263  36.421  40.332  1.00 81.47 LIG-0.23  N 
ATOM     23  NH2 ARG G   2      22.122  37.034  38.291  1.00 84.93 LIG-0.23  N 
ATOM     24 1HH1 ARG G   2      20.820  36.610  41.044  1.00 81.47 LIG 0.17  HD
ATOM     25 2HH1 ARG G   2      21.600  35.636  40.230  1.00 81.47 LIG 0.17  HD
ATOM     26 2HH2 ARG G   2      22.453  36.245  38.202  1.00 84.93 LIG 0.17  HD
ATOM     27 1HH2 ARG G   2      22.239  37.621  37.674  1.00 84.93 LIG 0.17  HD
ATOM     28 HE   ARG G   2      21.061  39.127  38.862  1.00 80.25 LIG 0.18  HD
ENDBRANCH 19 20
ENDBRANCH 18 19
ENDBRANCH 17 18
ENDBRANCH 6 17
ENDBRANCH 3 6
ENDBRANCH 1 2
BRANCH 1 29
ATOM     29  CB  THR G   3      13.783  35.510  41.910  1.00 68.23 LIG 0.15  C 
ATOM     30  CG2 THR G   3      14.422  34.522  42.868  1.00 68.63 LIG 0.04  C 
BRANCH 29 31
ATOM     31 OG1  THR G   3      12.356  35.380  41.971  1.00 67.51 LIG-0.39  OA
ATOM     32 HG1  THR G   3      12.156  34.725  42.456  1.00 67.51 LIG 0.21  HD
ENDBRANCH 29 31
ENDBRANCH 1 29
BRANCH 1 33
ATOM     33  C   THR G   3      14.042  37.183  43.757  1.00 68.02 LIG 0.24  C 
ATOM     34  N   ALA G   4      12.917  36.719  44.296  1.00 68.86 LIG-0.35  N 
ATOM     35 H    ALA G   4      12.285  36.358  43.837  1.00 68.86 LIG 0.16  HD
ATOM     36 O    THR G   3      14.916  37.763  44.404  1.00 67.54 LIG-0.27  OA
BRANCH 34 37
ATOM     37  CA  ALA G   4      12.645  36.779  45.735  1.00 69.75 LIG 0.17  C 
ATOM     38  CB  ALA G   4      13.632  35.904  46.489  1.00 70.86 LIG 0.04  C 
BRANCH 37 39
ATOM     39  C   ALA G   4      12.673  38.211  46.286  1.00 71.43 LIG 0.24  C 
ATOM     40  N   ALA G   5      11.994  39.132  45.599  1.00 71.85 LIG-0.35  N 
ATOM     41 H    ALA G   5      11.603  38.973  44.850  1.00 71.85 LIG 0.16  HD
ATOM     42 O    ALA G   4      13.302  38.465  47.318  1.00 72.80 LIG-0.27  OA
BRANCH 40 43
ATOM     43  CA  ALA G   5      11.853  40.516  46.064  1.00 72.89 LIG 0.17  C 
ATOM     44  CB  ALA G   5      11.535  40.549  47.553  1.00 72.65 LIG 0.04  C 
BRANCH 43 45
ATOM     45  C   ALA G   5      13.102  41.354  45.768  1.00 72.87 LIG 0.24  C 
ATOM     46  N   THR G   6      14.216  41.029  46.429  1.00 71.86 LIG-0.34  N 
ATOM     47 H    THR G   6      14.259  40.396  47.009  1.00 71.86 LIG 0.16  HD
ATOM     48 O    ALA G   5      13.048  42.276  44.952  1.00 74.40 LIG-0.27  OA
BRANCH 46 49
ATOM     49  CA  THR G   6      15.490  41.738  46.217  1.00 72.17 LIG 0.20  C 
BRANCH 49 50
ATOM     50  CB  THR G   6      15.988  41.629  44.757  1.00 71.29 LIG 0.15  C 
ATOM     51  CG2 THR G   6      17.449  42.059  44.647  1.00 70.64 LIG 0.04  C 
BRANCH 50 52
ATOM     52 OG1  THR G   6      15.849  40.282  44.290  1.00 70.47 LIG-0.39  OA
ATOM     53 HG1  THR G   6      15.275  39.882  44.755  1.00 70.47 LIG 0.21  HD
ENDBRANCH 50 52
ENDBRANCH 49 50
BRANCH 49 54
ATOM     54  C   THR G   6      15.411  43.220  46.610  1.00 73.53 LIG 0.24  C 
ATOM     55  N   ALA G   7      14.728  44.027  45.791  1.00 73.25 LIG-0.35  N 
ATOM     56 H    ALA G   7      14.414  43.772  45.032  1.00 73.25 LIG 0.16  HD
ATOM     57 O    THR G   6      15.975  43.615  47.633  1.00 75.15 LIG-0.27  OA
BRANCH 55 58
ATOM     58  CA  ALA G   7      14.444  45.434  46.105  1.00 74.45 LIG 0.16  C 
ATOM     59  CB  ALA G   7      15.559  46.331  45.587  1.00 73.04 LIG 0.04  C 
BRANCH 58 60
ATOM     60  C   ALA G   7      13.104  45.861  45.507  1.00 76.13 LIG 0.22  C 
ATOM     61 O    ALA G   7      12.156  45.077  45.448  1.00 77.97 LIG-0.29  OA
ENDBRANCH 58 60
ENDBRANCH 55 58
ENDBRANCH 49 54
ENDBRANCH 46 49
ENDBRANCH 43 45
ENDBRANCH 40 43
ENDBRANCH 37 39
ENDBRANCH 34 37
ENDBRANCH 1 33
TORSDOF 22
ENDMDL
MODEL 32
USER: ADFR SOLUTION from run 97
USER: SCORE 15.373803 LL:  -3.806 LR: -15.074 RR:   0.000 FEB:  -8.512
USER: RMSD 2.593986
USER: SEED 96
USER: STATUS searching
USER: GENES 24
USER: genes 0 Translation |==|  0.31672 0.48369 0.46087
USER: genes 1 Rotation |==|  0.52796 0.53652 0.57319 0.99247
USER: genes 2 Torsion [CB]-CA--N-[C] |==|  0.24815
USER: genes 3 Torsion [N]-C--CA-[N] |==|  0.50788
USER: genes 4 Torsion [C]-CA--N-[C] |==|  0.75770
USER: genes 5 Torsion [N]-C--CA-[N] |==|  0.27001
USER: genes 6 Torsion [C]-CA--N-[H1] |==|  0.54326
USER: genes 7 Torsion [C]-CA--CB-[CG] |==|  0.52836
USER: genes 8 Torsion [CA]-CB--CG-[CD] |==|  0.31033
USER: genes 9 Torsion [CB]-CG--CD-[NE] |==|  0.53419
USER: genes 10 Torsion [CG]-CD--NE-[CZ] |==|  0.57852
USER: genes 11 Torsion [N]-CA--CB-[OG1] |==|  0.54123
USER: genes 12 Torsion [CA]-CB--OG1-[HG1] |==|  0.76650
USER: genes 13 Torsion [N]-CA--C-[N] |==|  0.35753
USER: genes 14 Torsion [C]-N--CA-[CB] |==|  0.55266
USER: genes 15 Torsion [N]-CA--C-[N] |==|  0.90740
USER: genes 16 Torsion [C]-N--CA-[CB] |==|  0.58334
USER: genes 17 Torsion [N]-CA--C-[N] |==|  0.85735
USER: genes 18 Torsion [C]-N--CA-[CB] |==|  0.16897
USER: genes 19 Torsion [N]-CA--CB-[CG2] |==|  0.16080
USER: genes 20 Torsion [CA]-CB--OG1-[HG1] |==|  0.50564
USER: genes 21 Torsion [N]-CA--C-[N] |==|  0.08658
USER: genes 22 Torsion [C]-N--CA-[C] |==|  0.56501
USER: genes 23 Torsion [N]-CA--C-[O] |==|  0.94365
ROOT
ATOM      1  CA  THR G   3      14.014  37.860  42.371  1.00 68.23 LIG 0.20  C 
ENDROOT
BRANCH 1 2
ATOM      2  N   THR G   3      15.437  37.958  42.059  1.00 68.42 LIG-0.34  N 
ATOM      3  C   ARG G   2      15.932  37.753  40.841  1.00 70.38 LIG 0.24  C 
ATOM      4 O    ARG G   2      15.257  37.356  39.884  1.00 69.46 LIG-0.27  OA
ATOM      5 H    THR G   3      15.925  38.160  42.737  1.00 68.42 LIG 0.16  HD
BRANCH 3 6
ATOM      6  CA  ARG G   2      17.427  38.011  40.685  1.00 72.62 LIG 0.18  C 
BRANCH 6 7
ATOM      7  N   ARG G   2      17.804  37.811  39.289  1.00 74.86 LIG-0.35  N 
ATOM      8  C   ALA G   1      18.146  36.616  38.812  1.00 76.29 LIG 0.25  C 
ATOM      9 O    ALA G   1      18.343  35.627  39.525  1.00 75.70 LIG-0.27  OA
ATOM     10 H    ARG G   2      17.786  38.527  38.813  1.00 74.86 LIG 0.16  HD
BRANCH 8 11
ATOM     11  CA  ALA G   1      18.298  36.520  37.302  1.00 78.97 LIG 0.27  C 
ATOM     12  CB  ALA G   1      17.726  35.197  36.807  1.00 79.33 LIG 0.05  C 
BRANCH 11 13
ATOM     13  N   ALA G   1      19.729  36.655  36.911  1.00 81.42 LIG-0.07  N 
ATOM     14 H3   ALA G   1      20.160  35.897  37.095  1.00 81.42 LIG 0.28  HD
ATOM     15 H2   ALA G   1      20.099  37.324  37.366  1.00 81.42 LIG 0.28  HD
ATOM     16 H1   ALA G   1      19.784  36.823  36.039  1.00 81.42 LIG 0.28  HD
ENDBRANCH 11 13
ENDBRANCH 8 11
ENDBRANCH 6 7
BRANCH 6 17
ATOM     17  CB  ARG G   2      17.788  39.425  41.152  1.00 73.45 LIG 0.04  C 
BRANCH 17 18
ATOM     18  CG  ARG G   2      19.208  39.828  40.795  1.00 75.79 LIG 0.02  C 
BRANCH 18 19
ATOM     19  CD  ARG G   2      19.252  40.928  39.746  1.00 77.52 LIG 0.14  C 
BRANCH 19 20
ATOM     20  NE  ARG G   2      20.605  41.098  39.208  1.00 80.25 LIG-0.23  N 
ATOM     21  CZ  ARG G   2      21.110  42.234  38.717  1.00 82.01 LIG 0.67  C 
ATOM     22  NH1 ARG G   2      20.392  43.358  38.673  1.00 81.47 LIG-0.23  N 
ATOM     23  NH2 ARG G   2      22.358  42.246  38.255  1.00 84.93 LIG-0.23  N 
ATOM     24 1HH1 ARG G   2      19.582  43.363  38.964  1.00 81.47 LIG 0.17  HD
ATOM     25 2HH1 ARG G   2      20.738  44.078  38.353  1.00 81.47 LIG 0.17  HD
ATOM     26 2HH2 ARG G   2      22.692  42.973  37.938  1.00 84.93 LIG 0.17  HD
ATOM     27 1HH2 ARG G   2      22.831  41.528  38.274  1.00 84.93 LIG 0.17  HD
ATOM     28 HE   ARG G   2      21.117  40.407  39.208  1.00 80.25 LIG 0.18  HD
ENDBRANCH 19 20
ENDBRANCH 18 19
ENDBRANCH 17 18
ENDBRANCH 6 17
ENDBRANCH 3 6
ENDBRANCH 1 2
BRANCH 1 29
ATOM     29  CB  THR G   3      13.610  36.424  42.778  1.00 68.23 LIG 0.15  C 
ATOM     30  CG2 THR G   3      14.113  36.097  44.172  1.00 68.63 LIG 0.04  C 
BRANCH 29 31
ATOM     31 OG1  THR G   3      12.184  36.283  42.740  1.00 67.51 LIG-0.39  OA
ATOM     32 HG1  THR G   3      11.856  36.560  43.462  1.00 67.51 LIG 0.21  HD
ENDBRANCH 29 31
ENDBRANCH 1 29
BRANCH 1 33
ATOM     33  C   THR G   3      13.652  38.823  43.496  1.00 68.02 LIG 0.24  C 
ATOM     34  N   ALA G   4      12.617  39.628  43.260  1.00 68.86 LIG-0.35  N 
ATOM     35 H    ALA G   4      12.199  39.653  42.509  1.00 68.86 LIG 0.16  HD
ATOM     36 O    THR G   3      14.296  38.837  44.547  1.00 67.54 LIG-0.27  OA
BRANCH 34 37
ATOM     37  CA  ALA G   4      12.089  40.554  44.265  1.00 69.75 LIG 0.17  C 
ATOM     38  CB  ALA G   4      10.677  40.976  43.894  1.00 70.86 LIG 0.04  C 
BRANCH 37 39
ATOM     39  C   ALA G   4      12.115  39.970  45.684  1.00 71.43 LIG 0.24  C 
ATOM     40  N   ALA G   5      11.921  38.654  45.795  1.00 71.85 LIG-0.35  N 
ATOM     41 H    ALA G   5      11.728  38.145  45.129  1.00 71.85 LIG 0.16  HD
ATOM     42 O    ALA G   4      12.310  40.708  46.654  1.00 72.80 LIG-0.27  OA
BRANCH 40 43
ATOM     43  CA  ALA G   5      12.019  37.948  47.077  1.00 72.89 LIG 0.17  C 
ATOM     44  CB  ALA G   5      12.484  36.514  46.862  1.00 72.65 LIG 0.04  C 
BRANCH 43 45
ATOM     45  C   ALA G   5      12.948  38.667  48.061  1.00 72.87 LIG 0.24  C 
ATOM     46  N   THR G   6      14.166  38.989  47.615  1.00 71.86 LIG-0.34  N 
ATOM     47 H    THR G   6      14.449  38.802  46.824  1.00 71.86 LIG 0.16  HD
ATOM     48 O    ALA G   5      12.561  38.923  49.203  1.00 74.40 LIG-0.27  OA
BRANCH 46 49
ATOM     49  CA  THR G   6      15.145  39.704  48.451  1.00 72.17 LIG 0.20  C 
BRANCH 49 50
ATOM     50  CB  THR G   6      15.519  38.913  49.727  1.00 71.29 LIG 0.15  C 
ATOM     51  CG2 THR G   6      16.083  37.540  49.369  1.00 70.64 LIG 0.04  C 
BRANCH 50 52
ATOM     52 OG1  THR G   6      16.485  39.644  50.491  1.00 70.47 LIG-0.39  OA
ATOM     53 HG1  THR G   6      16.704  39.197  51.168  1.00 70.47 LIG 0.21  HD
ENDBRANCH 50 52
ENDBRANCH 49 50
BRANCH 49 54
ATOM     54  C   THR G   6      16.429  40.053  47.685  1.00 73.53 LIG 0.24  C 
ATOM     55  N   ALA G   7      16.306  40.290  46.375  1.00 73.25 LIG-0.35  N 
ATOM     56 H    ALA G   7      15.572  40.174  45.942  1.00 73.25 LIG 0.16  HD
ATOM     57 O    THR G   6      17.509  40.090  48.279  1.00 75.15 LIG-0.27  OA
BRANCH 55 58
ATOM     58  CA  ALA G   7      17.415  40.774  45.539  1.00 74.45 LIG 0.16  C 
ATOM     59  CB  ALA G   7      18.321  39.620  45.137  1.00 73.04 LIG 0.04  C 
BRANCH 58 60
ATOM     60  C   ALA G   7      16.882  41.484  44.295  1.00 76.13 LIG 0.22  C 
ATOM     61 O    ALA G   7      15.735  41.286  43.893  1.00 77.97 LIG-0.29  OA
ENDBRANCH 58 60
ENDBRANCH 55 58
ENDBRANCH 49 54
ENDBRANCH 46 49
ENDBRANCH 43 45
ENDBRANCH 40 43
ENDBRANCH 37 39
ENDBRANCH 34 37
ENDBRANCH 1 33
TORSDOF 22
ENDMDL
MODEL 33
USER: ADFR SOLUTION from run 100
USER: SCORE 16.778349 LL:  -3.828 LR: -15.074 RR:   0.000 FEB:  -8.512
USER: RMSD 4.341837
USER: SEED 99
USER: STATUS no improvement in best in 14 clusters for 5 generations
USER: GENES 24
USER: genes 0 Translation |==|  0.32435 0.46427 0.46507
USER: genes 1 Rotation |==|  0.58356 0.53756 0.57668 0.98552
USER: genes 2 Torsion [CB]-CA--N-[C] |==|  0.23195
USER: genes 3 Torsion [N]-C--CA-[N] |==|  0.48664
USER: genes 4 Torsion [C]-CA--N-[C] |==|  0.78164
USER: genes 5 Torsion [N]-C--CA-[N] |==|  0.24991
USER: genes 6 Torsion [C]-CA--N-[H1] |==|  0.86529
USER: genes 7 Torsion [C]-CA--CB-[CG] |==|  0.52636
USER: genes 8 Torsion [CA]-CB--CG-[CD] |==|  0.30076
USER: genes 9 Torsion [CB]-CG--CD-[NE] |==|  0.53449
USER: genes 10 Torsion [CG]-CD--NE-[CZ] |==|  0.59175
USER: genes 11 Torsion [N]-CA--CB-[OG1] |==|  0.06481
USER: genes 12 Torsion [CA]-CB--OG1-[HG1] |==|  0.86942
USER: genes 13 Torsion [N]-CA--C-[N] |==|  0.58307
USER: genes 14 Torsion [C]-N--CA-[CB] |==|  0.82387
USER: genes 15 Torsion [N]-CA--C-[N] |==|  0.02195
USER: genes 16 Torsion [C]-N--CA-[CB] |==|  0.78889
USER: genes 17 Torsion [N]-CA--C-[N] |==|  0.21453
USER: genes 18 Torsion [C]-N--CA-[CB] |==|  0.85442
USER: genes 19 Torsion [N]-CA--CB-[CG2] |==|  0.64407
USER: genes 20 Torsion [CA]-CB--OG1-[HG1] |==|  0.27797
USER: genes 21 Torsion [N]-CA--C-[N] |==|  0.92720
USER: genes 22 Torsion [C]-N--CA-[C] |==|  0.77420
USER: genes 23 Torsion [N]-CA--C-[O] |==|  0.98490
ROOT
ATOM      1  CA  THR G   3      14.186  37.511  42.456  1.00 68.23 LIG 0.20  C 
ENDROOT
BRANCH 1 2
ATOM      2  N   THR G   3      15.596  37.683  42.120  1.00 68.42 LIG-0.34  N 
ATOM      3  C   ARG G   2      16.058  37.641  40.873  1.00 70.38 LIG 0.24  C 
ATOM      4 O    ARG G   2      15.364  37.347  39.893  1.00 69.46 LIG-0.27  OA
ATOM      5 H    THR G   3      16.100  37.813  42.804  1.00 68.42 LIG 0.16  HD
BRANCH 3 6
ATOM      6  CA  ARG G   2      17.542  37.956  40.710  1.00 72.62 LIG 0.18  C 
BRANCH 6 7
ATOM      7  N   ARG G   2      17.922  37.759  39.314  1.00 74.86 LIG-0.35  N 
ATOM      8  C   ALA G   1      18.145  36.550  38.804  1.00 76.29 LIG 0.25  C 
ATOM      9 O    ALA G   1      18.224  35.524  39.488  1.00 75.70 LIG-0.27  OA
ATOM     10 H    ARG G   2      17.987  38.487  38.860  1.00 74.86 LIG 0.16  HD
BRANCH 8 11
ATOM     11  CA  ALA G   1      18.315  36.484  37.294  1.00 78.97 LIG 0.27  C 
ATOM     12  CB  ALA G   1      17.774  35.159  36.770  1.00 79.33 LIG 0.05  C 
BRANCH 11 13
ATOM     13  N   ALA G   1      19.746  36.654  36.920  1.00 81.42 LIG-0.07  N 
ATOM     14 H3   ALA G   1      19.811  36.781  36.041  1.00 81.42 LIG 0.28  HD
ATOM     15 H2   ALA G   1      20.201  35.925  37.149  1.00 81.42 LIG 0.28  HD
ATOM     16 H1   ALA G   1      20.083  37.359  37.347  1.00 81.42 LIG 0.28  HD
ENDBRANCH 11 13
ENDBRANCH 8 11
ENDBRANCH 6 7
BRANCH 6 17
ATOM     17  CB  ARG G   2      17.849  39.386  41.164  1.00 73.45 LIG 0.04  C 
BRANCH 17 18
ATOM     18  CG  ARG G   2      19.258  39.834  40.814  1.00 75.79 LIG 0.02  C 
BRANCH 18 19
ATOM     19  CD  ARG G   2      19.277  40.864  39.695  1.00 77.52 LIG 0.14  C 
BRANCH 19 20
ATOM     20  NE  ARG G   2      20.633  41.062  39.177  1.00 80.25 LIG-0.23  N 
ATOM     21  CZ  ARG G   2      21.125  42.212  38.705  1.00 82.01 LIG 0.67  C 
ATOM     22  NH1 ARG G   2      20.388  43.324  38.663  1.00 81.47 LIG-0.23  N 
ATOM     23  NH2 ARG G   2      22.379  42.251  38.260  1.00 84.93 LIG-0.23  N 
ATOM     24 1HH1 ARG G   2      19.575  43.312  38.943  1.00 81.47 LIG 0.17  HD
ATOM     25 2HH1 ARG G   2      20.726  44.053  38.355  1.00 81.47 LIG 0.17  HD
ATOM     26 2HH2 ARG G   2      22.704  42.987  37.954  1.00 84.93 LIG 0.17  HD
ATOM     27 1HH2 ARG G   2      22.864  41.541  38.278  1.00 84.93 LIG 0.17  HD
ATOM     28 HE   ARG G   2      21.158  40.380  39.177  1.00 80.25 LIG 0.18  HD
ENDBRANCH 19 20
ENDBRANCH 18 19
ENDBRANCH 17 18
ENDBRANCH 6 17
ENDBRANCH 3 6
ENDBRANCH 1 2
BRANCH 1 29
ATOM     29  CB  THR G   3      13.793  36.018  42.552  1.00 68.23 LIG 0.15  C 
ATOM     30  CG2 THR G   3      13.148  35.546  41.263  1.00 68.63 LIG 0.04  C 
BRANCH 29 31
ATOM     31 OG1  THR G   3      14.952  35.219  42.826  1.00 67.51 LIG-0.39  OA
ATOM     32 HG1  THR G   3      15.576  35.447  42.313  1.00 67.51 LIG 0.21  HD
ENDBRANCH 29 31
ENDBRANCH 1 29
BRANCH 1 33
ATOM     33  C   THR G   3      13.869  38.201  43.778  1.00 68.02 LIG 0.24  C 
ATOM     34  N   ALA G   4      12.889  37.655  44.496  1.00 68.86 LIG-0.35  N 
ATOM     35 H    ALA G   4      12.420  36.986  44.226  1.00 68.86 LIG 0.16  HD
ATOM     36 O    THR G   3      14.493  39.202  44.134  1.00 67.54 LIG-0.27  OA
BRANCH 34 37
ATOM     37  CA  ALA G   4      12.514  38.144  45.825  1.00 69.75 LIG 0.17  C 
ATOM     38  CB  ALA G   4      13.671  37.964  46.793  1.00 70.86 LIG 0.04  C 
BRANCH 37 39
ATOM     39  C   ALA G   4      12.054  39.608  45.812  1.00 71.43 LIG 0.24  C 
ATOM     40  N   ALA G   5      11.899  40.177  44.614  1.00 71.85 LIG-0.35  N 
ATOM     41 H    ALA G   5      12.097  39.788  43.874  1.00 71.85 LIG 0.16  HD
ATOM     42 O    ALA G   4      11.844  40.201  46.874  1.00 72.80 LIG-0.27  OA
BRANCH 40 43
ATOM     43  CA  ALA G   5      11.369  41.536  44.450  1.00 72.89 LIG 0.17  C 
ATOM     44  CB  ALA G   5       9.861  41.549  44.657  1.00 72.65 LIG 0.04  C 
BRANCH 43 45
ATOM     45  C   ALA G   5      12.045  42.535  45.395  1.00 72.87 LIG 0.24  C 
ATOM     46  N   THR G   6      13.268  42.952  45.058  1.00 71.86 LIG-0.34  N 
ATOM     47 H    THR G   6      13.689  42.680  44.359  1.00 71.86 LIG 0.16  HD
ATOM     48 O    ALA G   5      11.460  42.918  46.411  1.00 74.40 LIG-0.27  OA
BRANCH 46 49
ATOM     49  CA  THR G   6      14.015  43.931  45.868  1.00 72.17 LIG 0.20  C 
BRANCH 49 50
ATOM     50  CB  THR G   6      13.194  45.210  46.150  1.00 71.29 LIG 0.15  C 
ATOM     51  CG2 THR G   6      13.985  46.459  45.770  1.00 70.64 LIG 0.04  C 
BRANCH 50 52
ATOM     52 OG1  THR G   6      11.966  45.177  45.414  1.00 70.47 LIG-0.39  OA
ATOM     53 HG1  THR G   6      11.341  44.937  45.921  1.00 70.47 LIG 0.21  HD
ENDBRANCH 50 52
ENDBRANCH 49 50
BRANCH 49 54
ATOM     54  C   THR G   6      14.501  43.343  47.200  1.00 73.53 LIG 0.24  C 
ATOM     55  N   ALA G   7      13.797  42.324  47.704  1.00 73.25 LIG-0.35  N 
ATOM     56 H    ALA G   7      13.056  42.050  47.365  1.00 73.25 LIG 0.16  HD
ATOM     57 O    THR G   6      15.490  43.823  47.759  1.00 75.15 LIG-0.27  OA
BRANCH 55 58
ATOM     58  CA  ALA G   7      14.219  41.568  48.892  1.00 74.45 LIG 0.16  C 
ATOM     59  CB  ALA G   7      13.020  40.907  49.556  1.00 73.04 LIG 0.04  C 
BRANCH 58 60
ATOM     60  C   ALA G   7      15.262  40.514  48.519  1.00 76.13 LIG 0.22  C 
ATOM     61 O    ALA G   7      15.570  40.315  47.343  1.00 77.97 LIG-0.29  OA
ENDBRANCH 58 60
ENDBRANCH 55 58
ENDBRANCH 49 54
ENDBRANCH 46 49
ENDBRANCH 43 45
ENDBRANCH 40 43
ENDBRANCH 37 39
ENDBRANCH 34 37
ENDBRANCH 1 33
TORSDOF 22
ENDMDL
MODEL 34
USER: ADFR SOLUTION from run 126
USER: SCORE 16.237482 LL:  -4.156 LR: -15.062 RR:   0.000 FEB:  -8.499
USER: RMSD 3.447790
USER: SEED 125
USER: STATUS no improvement in best in 12 clusters for 5 generations
USER: GENES 24
USER: genes 0 Translation |==|  0.32221 0.47445 0.44682
USER: genes 1 Rotation |==|  0.55743 0.53961 0.55116 0.99246
USER: genes 2 Torsion [CB]-CA--N-[C] |==|  0.22647
USER: genes 3 Torsion [N]-C--CA-[N] |==|  0.51571
USER: genes 4 Torsion [C]-CA--N-[C] |==|  0.74664
USER: genes 5 Torsion [N]-C--CA-[N] |==|  0.27594
USER: genes 6 Torsion [C]-CA--N-[H1] |==|  0.05734
USER: genes 7 Torsion [C]-CA--CB-[CG] |==|  0.51936
USER: genes 8 Torsion [CA]-CB--CG-[CD] |==|  0.92073
USER: genes 9 Torsion [CB]-CG--CD-[NE] |==|  0.41664
USER: genes 10 Torsion [CG]-CD--NE-[CZ] |==|  0.56057
USER: genes 11 Torsion [N]-CA--CB-[OG1] |==|  0.52439
USER: genes 12 Torsion [CA]-CB--OG1-[HG1] |==|  0.79879
USER: genes 13 Torsion [N]-CA--C-[N] |==|  0.40494
USER: genes 14 Torsion [C]-N--CA-[CB] |==|  0.85418
USER: genes 15 Torsion [N]-CA--C-[N] |==|  0.85142
USER: genes 16 Torsion [C]-N--CA-[CB] |==|  0.13441
USER: genes 17 Torsion [N]-CA--C-[N] |==|  0.08515
USER: genes 18 Torsion [C]-N--CA-[CB] |==|  0.50026
USER: genes 19 Torsion [N]-CA--CB-[CG2] |==|  0.45054
USER: genes 20 Torsion [CA]-CB--OG1-[HG1] |==|  0.20933
USER: genes 21 Torsion [N]-CA--C-[N] |==|  0.88159
USER: genes 22 Torsion [C]-N--CA-[C] |==|  0.73237
USER: genes 23 Torsion [N]-CA--C-[O] |==|  0.02549
ROOT
ATOM      1  CA  THR G   3      14.138  37.694  42.086  1.00 68.23 LIG 0.20  C 
ENDROOT
BRANCH 1 2
ATOM      2  N   THR G   3      15.553  37.693  41.731  1.00 68.42 LIG-0.34  N 
ATOM      3  C   ARG G   2      15.997  37.428  40.504  1.00 70.38 LIG 0.24  C 
ATOM      4 O    ARG G   2      15.269  37.053  39.578  1.00 69.46 LIG-0.27  OA
ATOM      5 H    THR G   3      16.074  37.879  42.389  1.00 68.42 LIG 0.16  HD
BRANCH 3 6
ATOM      6  CA  ARG G   2      17.499  37.586  40.299  1.00 72.62 LIG 0.18  C 
BRANCH 6 7
ATOM      7  N   ARG G   2      17.812  37.395  38.885  1.00 74.86 LIG-0.35  N 
ATOM      8  C   ALA G   1      18.128  36.203  38.385  1.00 76.29 LIG 0.25  C 
ATOM      9 O    ALA G   1      18.355  35.208  39.080  1.00 75.70 LIG-0.27  OA
ATOM     10 H    ARG G   2      17.773  38.114  38.415  1.00 74.86 LIG 0.16  HD
BRANCH 8 11
ATOM     11  CA  ALA G   1      18.210  36.118  36.869  1.00 78.97 LIG 0.27  C 
ATOM     12  CB  ALA G   1      17.564  34.823  36.387  1.00 79.33 LIG 0.05  C 
BRANCH 11 13
ATOM     13  N   ALA G   1      19.627  36.200  36.416  1.00 81.42 LIG-0.07  N 
ATOM     14 H3   ALA G   1      19.805  37.029  36.146  1.00 81.42 LIG 0.28  HD
ATOM     15 H2   ALA G   1      19.756  35.634  35.741  1.00 81.42 LIG 0.28  HD
ATOM     16 H1   ALA G   1      20.167  35.985  37.090  1.00 81.42 LIG 0.28  HD
ENDBRANCH 11 13
ENDBRANCH 8 11
ENDBRANCH 6 7
BRANCH 6 17
ATOM     17  CB  ARG G   2      17.975  38.960  40.783  1.00 73.45 LIG 0.04  C 
BRANCH 17 18
ATOM     18  CG  ARG G   2      19.430  39.240  40.450  1.00 75.79 LIG 0.02  C 
BRANCH 18 19
ATOM     19  CD  ARG G   2      20.261  37.968  40.369  1.00 77.52 LIG 0.14  C 
BRANCH 19 20
ATOM     20  NE  ARG G   2      21.368  38.115  39.421  1.00 80.25 LIG-0.23  N 
ATOM     21  CZ  ARG G   2      22.014  37.112  38.817  1.00 82.01 LIG 0.67  C 
ATOM     22  NH1 ARG G   2      21.689  35.836  39.040  1.00 81.47 LIG-0.23  N 
ATOM     23  NH2 ARG G   2      23.009  37.388  37.978  1.00 84.93 LIG-0.23  N 
ATOM     24 1HH1 ARG G   2      21.051  35.643  39.583  1.00 81.47 LIG 0.17  HD
ATOM     25 2HH1 ARG G   2      22.118  35.207  38.640  1.00 81.47 LIG 0.17  HD
ATOM     26 2HH2 ARG G   2      23.430  36.750  37.585  1.00 84.93 LIG 0.17  HD
ATOM     27 1HH2 ARG G   2      23.231  38.205  37.828  1.00 84.93 LIG 0.17  HD
ATOM     28 HE   ARG G   2      21.625  38.915  39.237  1.00 80.25 LIG 0.18  HD
ENDBRANCH 19 20
ENDBRANCH 18 19
ENDBRANCH 17 18
ENDBRANCH 6 17
ENDBRANCH 3 6
ENDBRANCH 1 2
BRANCH 1 29
ATOM     29  CB  THR G   3      13.609  36.265  42.354  1.00 68.23 LIG 0.15  C 
ATOM     30  CG2 THR G   3      14.235  35.686  43.609  1.00 68.63 LIG 0.04  C 
BRANCH 29 31
ATOM     31 OG1  THR G   3      12.182  36.286  42.498  1.00 67.51 LIG-0.39  OA
ATOM     32 HG1  THR G   3      11.980  36.638  43.233  1.00 67.51 LIG 0.21  HD
ENDBRANCH 29 31
ENDBRANCH 1 29
BRANCH 1 33
ATOM     33  C   THR G   3      13.903  38.558  43.321  1.00 68.02 LIG 0.24  C 
ATOM     34  N   ALA G   4      12.746  39.216  43.355  1.00 68.86 LIG-0.35  N 
ATOM     35 H    ALA G   4      12.177  39.208  42.710  1.00 68.86 LIG 0.16  HD
ATOM     36 O    THR G   3      14.749  38.626  44.214  1.00 67.54 LIG-0.27  OA
BRANCH 34 37
ATOM     37  CA  ALA G   4      12.329  40.025  44.504  1.00 69.75 LIG 0.17  C 
ATOM     38  CB  ALA G   4      12.416  39.202  45.779  1.00 70.86 LIG 0.04  C 
BRANCH 37 39
ATOM     39  C   ALA G   4      13.142  41.318  44.648  1.00 71.43 LIG 0.24  C 
ATOM     40  N   ALA G   5      14.471  41.191  44.682  1.00 71.85 LIG-0.35  N 
ATOM     41 H    ALA G   5      14.875  40.432  44.687  1.00 71.85 LIG 0.16  HD
ATOM     42 O    ALA G   4      12.566  42.407  44.725  1.00 72.80 LIG-0.27  OA
BRANCH 40 43
ATOM     43  CA  ALA G   5      15.373  42.347  44.716  1.00 72.89 LIG 0.17  C 
ATOM     44  CB  ALA G   5      14.925  43.341  45.780  1.00 72.65 LIG 0.04  C 
BRANCH 43 45
ATOM     45  C   ALA G   5      16.829  41.935  44.952  1.00 72.87 LIG 0.24  C 
ATOM     46  N   THR G   6      17.201  40.740  44.484  1.00 71.86 LIG-0.34  N 
ATOM     47 H    THR G   6      16.669  40.200  44.078  1.00 71.86 LIG 0.16  HD
ATOM     48 O    ALA G   5      17.597  42.692  45.549  1.00 74.40 LIG-0.27  OA
BRANCH 46 49
ATOM     49  CA  THR G   6      18.579  40.236  44.622  1.00 72.17 LIG 0.20  C 
BRANCH 49 50
ATOM     50  CB  THR G   6      18.758  38.833  43.998  1.00 71.29 LIG 0.15  C 
ATOM     51  CG2 THR G   6      20.235  38.528  43.761  1.00 70.64 LIG 0.04  C 
BRANCH 50 52
ATOM     52 OG1  THR G   6      18.195  37.837  44.861  1.00 70.47 LIG-0.39  OA
ATOM     53 HG1  THR G   6      17.357  37.857  44.803  1.00 70.47 LIG 0.21  HD
ENDBRANCH 50 52
ENDBRANCH 49 50
BRANCH 49 54
ATOM     54  C   THR G   6      19.618  41.190  44.016  1.00 73.53 LIG 0.24  C 
ATOM     55  N   ALA G   7      19.319  41.738  42.834  1.00 73.25 LIG-0.35  N 
ATOM     56 H    ALA G   7      18.626  41.518  42.374  1.00 73.25 LIG 0.16  HD
ATOM     57 O    THR G   6      20.675  41.407  44.613  1.00 75.15 LIG-0.27  OA
BRANCH 55 58
ATOM     58  CA  ALA G   7      20.144  42.776  42.199  1.00 74.45 LIG 0.16  C 
ATOM     59  CB  ALA G   7      20.212  42.555  40.695  1.00 73.04 LIG 0.04  C 
BRANCH 58 60
ATOM     60  C   ALA G   7      19.588  44.168  42.502  1.00 76.13 LIG 0.22  C 
ATOM     61 O    ALA G   7      18.686  44.326  43.325  1.00 77.97 LIG-0.29  OA
ENDBRANCH 58 60
ENDBRANCH 55 58
ENDBRANCH 49 54
ENDBRANCH 46 49
ENDBRANCH 43 45
ENDBRANCH 40 43
ENDBRANCH 37 39
ENDBRANCH 34 37
ENDBRANCH 1 33
TORSDOF 22
ENDMDL
MODEL 35
USER: ADFR SOLUTION from run 177
USER: SCORE 15.372181 LL:  -3.581 LR: -15.025 RR:   0.000 FEB:  -8.463
USER: RMSD 4.274944
USER: SEED 176
USER: STATUS searching
USER: GENES 24
USER: genes 0 Translation |==|  0.33131 0.51057 0.44604
USER: genes 1 Rotation |==|  0.45234 0.55233 0.57030 0.98995
USER: genes 2 Torsion [CB]-CA--N-[C] |==|  0.26361
USER: genes 3 Torsion [N]-C--CA-[N] |==|  0.53329
USER: genes 4 Torsion [C]-CA--N-[C] |==|  0.76030
USER: genes 5 Torsion [N]-C--CA-[N] |==|  0.28928
USER: genes 6 Torsion [C]-CA--N-[H1] |==|  0.02580
USER: genes 7 Torsion [C]-CA--CB-[CG] |==|  0.63140
USER: genes 8 Torsion [CA]-CB--CG-[CD] |==|  0.59392
USER: genes 9 Torsion [CB]-CG--CD-[NE] |==|  0.41766
USER: genes 10 Torsion [CG]-CD--NE-[CZ] |==|  0.30866
USER: genes 11 Torsion [N]-CA--CB-[OG1] |==|  0.56308
USER: genes 12 Torsion [CA]-CB--OG1-[HG1] |==|  0.77419
USER: genes 13 Torsion [N]-CA--C-[N] |==|  0.44984
USER: genes 14 Torsion [C]-N--CA-[CB] |==|  0.53333
USER: genes 15 Torsion [N]-CA--C-[N] |==|  0.94105
USER: genes 16 Torsion [C]-N--CA-[CB] |==|  0.77417
USER: genes 17 Torsion [N]-CA--C-[N] |==|  0.08331
USER: genes 18 Torsion [C]-N--CA-[CB] |==|  0.86109
USER: genes 19 Torsion [N]-CA--CB-[CG2] |==|  0.53083
USER: genes 20 Torsion [CA]-CB--OG1-[HG1] |==|  0.32333
USER: genes 21 Torsion [N]-CA--C-[N] |==|  0.91858
USER: genes 22 Torsion [C]-N--CA-[C] |==|  0.82084
USER: genes 23 Torsion [N]-CA--C-[O] |==|  0.88379
ROOT
ATOM      1  CA  THR G   3      14.342  38.344  42.070  1.00 68.23 LIG 0.20  C 
ENDROOT
BRANCH 1 2
ATOM      2  N   THR G   3      15.758  38.360  41.713  1.00 68.42 LIG-0.34  N 
ATOM      3  C   ARG G   2      16.222  37.897  40.556  1.00 70.38 LIG 0.24  C 
ATOM      4 O    ARG G   2      15.523  37.312  39.721  1.00 69.46 LIG-0.27  OA
ATOM      5 H    THR G   3      16.263  38.697  42.322  1.00 68.42 LIG 0.16  HD
BRANCH 3 6
ATOM      6  CA  ARG G   2      17.714  38.102  40.315  1.00 72.62 LIG 0.18  C 
BRANCH 6 7
ATOM      7  N   ARG G   2      18.018  37.811  38.917  1.00 74.86 LIG-0.35  N 
ATOM      8  C   ALA G   1      18.287  36.579  38.492  1.00 76.29 LIG 0.25  C 
ATOM      9 O    ALA G   1      18.475  35.622  39.249  1.00 75.70 LIG-0.27  OA
ATOM     10 H    ARG G   2      18.007  38.501  38.403  1.00 74.86 LIG 0.16  HD
BRANCH 8 11
ATOM     11  CA  ALA G   1      18.365  36.397  36.984  1.00 78.97 LIG 0.27  C 
ATOM     12  CB  ALA G   1      17.568  35.165  36.570  1.00 79.33 LIG 0.05  C 
BRANCH 11 13
ATOM     13  N   ALA G   1      19.783  36.279  36.544  1.00 81.42 LIG-0.07  N 
ATOM     14 H3   ALA G   1      20.012  37.005  36.082  1.00 81.42 LIG 0.28  HD
ATOM     15 H2   ALA G   1      19.875  35.559  36.030  1.00 81.42 LIG 0.28  HD
ATOM     16 H1   ALA G   1      20.310  36.203  37.257  1.00 81.42 LIG 0.28  HD
ENDBRANCH 11 13
ENDBRANCH 8 11
ENDBRANCH 6 7
BRANCH 6 17
ATOM     17  CB  ARG G   2      18.134  39.530  40.680  1.00 73.45 LIG 0.04  C 
BRANCH 17 18
ATOM     18  CG  ARG G   2      18.994  40.191  39.617  1.00 75.79 LIG 0.02  C 
BRANCH 18 19
ATOM     19  CD  ARG G   2      20.031  41.131  40.211  1.00 77.52 LIG 0.14  C 
BRANCH 19 20
ATOM     20  NE  ARG G   2      21.227  41.206  39.369  1.00 80.25 LIG-0.23  N 
ATOM     21  CZ  ARG G   2      21.616  42.273  38.663  1.00 82.01 LIG 0.67  C 
ATOM     22  NH1 ARG G   2      20.913  43.408  38.665  1.00 81.47 LIG-0.23  N 
ATOM     23  NH2 ARG G   2      22.727  42.203  37.934  1.00 84.93 LIG-0.23  N 
ATOM     24 1HH1 ARG G   2      20.190  43.465  39.128  1.00 81.47 LIG 0.17  HD
ATOM     25 2HH1 ARG G   2      21.182  44.081  38.203  1.00 81.47 LIG 0.17  HD
ATOM     26 2HH2 ARG G   2      22.985  42.884  37.477  1.00 84.93 LIG 0.17  HD
ATOM     27 1HH2 ARG G   2      23.188  41.477  37.921  1.00 84.93 LIG 0.17  HD
ATOM     28 HE   ARG G   2      21.722  40.504  39.326  1.00 80.25 LIG 0.18  HD
ENDBRANCH 19 20
ENDBRANCH 18 19
ENDBRANCH 17 18
ENDBRANCH 6 17
ENDBRANCH 3 6
ENDBRANCH 1 2
BRANCH 1 29
ATOM     29  CB  THR G   3      13.971  37.095  42.903  1.00 68.23 LIG 0.15  C 
ATOM     30  CG2 THR G   3      14.332  37.294  44.364  1.00 68.63 LIG 0.04  C 
BRANCH 29 31
ATOM     31 OG1  THR G   3      12.568  36.825  42.790  1.00 67.51 LIG-0.39  OA
ATOM     32 HG1  THR G   3      12.144  37.323  43.318  1.00 67.51 LIG 0.21  HD
ENDBRANCH 29 31
ENDBRANCH 1 29
BRANCH 1 33
ATOM     33  C   THR G   3      13.981  39.599  42.858  1.00 68.02 LIG 0.24  C 
ATOM     34  N   ALA G   4      12.683  39.891  42.920  1.00 68.86 LIG-0.35  N 
ATOM     35 H    ALA G   4      12.077  39.441  42.507  1.00 68.86 LIG 0.16  HD
ATOM     36 O    THR G   3      14.856  40.284  43.391  1.00 67.54 LIG-0.27  OA
BRANCH 34 37
ATOM     37  CA  ALA G   4      12.160  41.014  43.702  1.00 69.75 LIG 0.17  C 
ATOM     38  CB  ALA G   4      10.648  40.912  43.815  1.00 70.86 LIG 0.04  C 
BRANCH 37 39
ATOM     39  C   ALA G   4      12.792  41.112  45.097  1.00 71.43 LIG 0.24  C 
ATOM     40  N   ALA G   5      13.352  40.001  45.582  1.00 71.85 LIG-0.35  N 
ATOM     41 H    ALA G   5      13.321  39.241  45.182  1.00 71.85 LIG 0.16  HD
ATOM     42 O    ALA G   4      12.770  42.181  45.714  1.00 72.80 LIG-0.27  OA
BRANCH 40 43
ATOM     43  CA  ALA G   5      14.079  39.976  46.856  1.00 72.89 LIG 0.17  C 
ATOM     44  CB  ALA G   5      15.502  40.486  46.668  1.00 72.65 LIG 0.04  C 
BRANCH 43 45
ATOM     45  C   ALA G   5      13.363  40.785  47.943  1.00 72.87 LIG 0.24  C 
ATOM     46  N   THR G   6      12.031  40.857  47.863  1.00 71.86 LIG-0.34  N 
ATOM     47 H    THR G   6      11.571  40.490  47.237  1.00 71.86 LIG 0.16  HD
ATOM     48 O    ALA G   5      14.014  41.331  48.836  1.00 74.40 LIG-0.27  OA
BRANCH 46 49
ATOM     49  CA  THR G   6      11.223  41.581  48.859  1.00 72.17 LIG 0.20  C 
BRANCH 49 50
ATOM     50  CB  THR G   6      11.579  41.182  50.310  1.00 71.29 LIG 0.15  C 
ATOM     51  CG2 THR G   6      10.552  41.735  51.295  1.00 70.64 LIG 0.04  C 
BRANCH 50 52
ATOM     52 OG1  THR G   6      11.635  39.755  50.427  1.00 70.47 LIG-0.39  OA
ATOM     53 HG1  THR G   6      12.417  39.520  50.625  1.00 70.47 LIG 0.21  HD
ENDBRANCH 50 52
ENDBRANCH 49 50
BRANCH 49 54
ATOM     54  C   THR G   6      11.340  43.105  48.716  1.00 73.53 LIG 0.24  C 
ATOM     55  N   ALA G   7      12.490  43.580  48.226  1.00 73.25 LIG-0.35  N 
ATOM     56 H    ALA G   7      13.177  43.085  48.074  1.00 73.25 LIG 0.16  HD
ATOM     57 O    THR G   6      10.402  43.828  49.060  1.00 75.15 LIG-0.27  OA
BRANCH 55 58
ATOM     58  CA  ALA G   7      12.698  44.997  47.898  1.00 74.45 LIG 0.16  C 
ATOM     59  CB  ALA G   7      14.151  45.250  47.523  1.00 73.04 LIG 0.04  C 
BRANCH 58 60
ATOM     60  C   ALA G   7      11.777  45.428  46.757  1.00 76.13 LIG 0.22  C 
ATOM     61 O    ALA G   7      11.591  44.699  45.781  1.00 77.97 LIG-0.29  OA
ENDBRANCH 58 60
ENDBRANCH 55 58
ENDBRANCH 49 54
ENDBRANCH 46 49
ENDBRANCH 43 45
ENDBRANCH 40 43
ENDBRANCH 37 39
ENDBRANCH 34 37
ENDBRANCH 1 33
TORSDOF 22
ENDMDL
MODEL 36
USER: ADFR SOLUTION from run 159
USER: SCORE 15.680393 LL:  -3.541 LR: -15.018 RR:   0.000 FEB:  -8.455
USER: RMSD 3.940580
USER: SEED 158
USER: STATUS searching
USER: GENES 24
USER: genes 0 Translation |==|  0.32184 0.48007 0.46385
USER: genes 1 Rotation |==|  0.51511 0.54211 0.57593 0.99217
USER: genes 2 Torsion [CB]-CA--N-[C] |==|  0.26468
USER: genes 3 Torsion [N]-C--CA-[N] |==|  0.50232
USER: genes 4 Torsion [C]-CA--N-[C] |==|  0.74880
USER: genes 5 Torsion [N]-C--CA-[N] |==|  0.28241
USER: genes 6 Torsion [C]-CA--N-[H1] |==|  0.57622
USER: genes 7 Torsion [C]-CA--CB-[CG] |==|  0.53077
USER: genes 8 Torsion [CA]-CB--CG-[CD] |==|  0.29558
USER: genes 9 Torsion [CB]-CG--CD-[NE] |==|  0.53074
USER: genes 10 Torsion [CG]-CD--NE-[CZ] |==|  0.59689
USER: genes 11 Torsion [N]-CA--CB-[OG1] |==|  0.03344
USER: genes 12 Torsion [CA]-CB--OG1-[HG1] |==|  0.49917
USER: genes 13 Torsion [N]-CA--C-[N] |==|  0.34677
USER: genes 14 Torsion [C]-N--CA-[CB] |==|  0.54398
USER: genes 15 Torsion [N]-CA--C-[N] |==|  0.32684
USER: genes 16 Torsion [C]-N--CA-[CB] |==|  0.79510
USER: genes 17 Torsion [N]-CA--C-[N] |==|  0.04562
USER: genes 18 Torsion [C]-N--CA-[CB] |==|  0.52516
USER: genes 19 Torsion [N]-CA--CB-[CG2] |==|  0.18418
USER: genes 20 Torsion [CA]-CB--OG1-[HG1] |==|  0.06817
USER: genes 21 Torsion [N]-CA--C-[N] |==|  0.37254
USER: genes 22 Torsion [C]-N--CA-[C] |==|  0.60551
USER: genes 23 Torsion [N]-CA--C-[O] |==|  0.97534
ROOT
ATOM      1  CA  THR G   3      14.129  37.795  42.431  1.00 68.23 LIG 0.20  C 
ENDROOT
BRANCH 1 2
ATOM      2  N   THR G   3      15.546  37.898  42.094  1.00 68.42 LIG-0.34  N 
ATOM      3  C   ARG G   2      16.013  37.749  40.857  1.00 70.38 LIG 0.24  C 
ATOM      4 O    ARG G   2      15.316  37.403  39.897  1.00 69.46 LIG-0.27  OA
ATOM      5 H    THR G   3      16.050  38.064  42.771  1.00 68.42 LIG 0.16  HD
BRANCH 3 6
ATOM      6  CA  ARG G   2      17.507  38.004  40.683  1.00 72.62 LIG 0.18  C 
BRANCH 6 7
ATOM      7  N   ARG G   2      17.863  37.822  39.278  1.00 74.86 LIG-0.35  N 
ATOM      8  C   ALA G   1      18.253  36.645  38.793  1.00 76.29 LIG 0.25  C 
ATOM      9 O    ALA G   1      18.516  35.668  39.501  1.00 75.70 LIG-0.27  OA
ATOM     10 H    ARG G   2      17.797  38.535  38.802  1.00 74.86 LIG 0.16  HD
BRANCH 8 11
ATOM     11  CA  ALA G   1      18.376  36.556  37.280  1.00 78.97 LIG 0.27  C 
ATOM     12  CB  ALA G   1      17.759  35.252  36.787  1.00 79.33 LIG 0.05  C 
BRANCH 11 13
ATOM     13  N   ALA G   1      19.802  36.654  36.864  1.00 81.42 LIG-0.07  N 
ATOM     14 H3   ALA G   1      20.171  35.844  36.873  1.00 81.42 LIG 0.28  HD
ATOM     15 H2   ALA G   1      20.240  37.185  37.429  1.00 81.42 LIG 0.28  HD
ATOM     16 H1   ALA G   1      19.850  36.993  36.043  1.00 81.42 LIG 0.28  HD
ENDBRANCH 11 13
ENDBRANCH 8 11
ENDBRANCH 6 7
BRANCH 6 17
ATOM     17  CB  ARG G   2      17.880  39.411  41.163  1.00 73.45 LIG 0.04  C 
BRANCH 17 18
ATOM     18  CG  ARG G   2      19.289  39.822  40.772  1.00 75.79 LIG 0.02  C 
BRANCH 18 19
ATOM     19  CD  ARG G   2      19.302  40.847  39.649  1.00 77.52 LIG 0.14  C 
BRANCH 19 20
ATOM     20  NE  ARG G   2      20.653  41.033  39.113  1.00 80.25 LIG-0.23  N 
ATOM     21  CZ  ARG G   2      21.161  42.185  38.664  1.00 82.01 LIG 0.67  C 
ATOM     22  NH1 ARG G   2      20.445  43.313  38.663  1.00 81.47 LIG-0.23  N 
ATOM     23  NH2 ARG G   2      22.407  42.212  38.199  1.00 84.93 LIG-0.23  N 
ATOM     24 1HH1 ARG G   2      19.637  43.309  38.957  1.00 81.47 LIG 0.17  HD
ATOM     25 2HH1 ARG G   2      20.792  44.043  38.369  1.00 81.47 LIG 0.17  HD
ATOM     26 2HH2 ARG G   2      22.742  42.949  37.907  1.00 84.93 LIG 0.17  HD
ATOM     27 1HH2 ARG G   2      22.878  41.493  38.189  1.00 84.93 LIG 0.17  HD
ATOM     28 HE   ARG G   2      21.164  40.342  39.086  1.00 80.25 LIG 0.18  HD
ENDBRANCH 19 20
ENDBRANCH 18 19
ENDBRANCH 17 18
ENDBRANCH 6 17
ENDBRANCH 3 6
ENDBRANCH 1 2
BRANCH 1 29
ATOM     29  CB  THR G   3      13.754  36.376  42.919  1.00 68.23 LIG 0.15  C 
ATOM     30  CG2 THR G   3      12.906  35.658  41.886  1.00 68.63 LIG 0.04  C 
BRANCH 29 31
ATOM     31 OG1  THR G   3      14.939  35.614  43.179  1.00 67.51 LIG-0.39  OA
ATOM     32 HG1  THR G   3      14.726  34.847  43.447  1.00 67.51 LIG 0.21  HD
ENDBRANCH 29 31
ENDBRANCH 1 29
BRANCH 1 33
ATOM     33  C   THR G   3      13.767  38.811  43.509  1.00 68.02 LIG 0.24  C 
ATOM     34  N   ALA G   4      12.767  39.639  43.212  1.00 68.86 LIG-0.35  N 
ATOM     35 H    ALA G   4      12.372  39.649  42.448  1.00 68.86 LIG 0.16  HD
ATOM     36 O    THR G   3      14.380  38.843  44.578  1.00 67.54 LIG-0.27  OA
BRANCH 34 37
ATOM     37  CA  ALA G   4      12.240  40.618  44.166  1.00 69.75 LIG 0.17  C 
ATOM     38  CB  ALA G   4      10.888  41.129  43.697  1.00 70.86 LIG 0.04  C 
BRANCH 37 39
ATOM     39  C   ALA G   4      12.134  40.062  45.592  1.00 71.43 LIG 0.24  C 
ATOM     40  N   ALA G   5      12.875  40.661  46.527  1.00 71.85 LIG-0.35  N 
ATOM     41 H    ALA G   5      13.438  41.288  46.357  1.00 71.85 LIG 0.16  HD
ATOM     42 O    ALA G   4      11.388  39.108  45.831  1.00 72.80 LIG-0.27  OA
BRANCH 40 43
ATOM     43  CA  ALA G   5      12.796  40.299  47.947  1.00 72.89 LIG 0.17  C 
ATOM     44  CB  ALA G   5      11.506  40.826  48.560  1.00 72.65 LIG 0.04  C 
BRANCH 43 45
ATOM     45  C   ALA G   5      12.909  38.786  48.162  1.00 72.87 LIG 0.24  C 
ATOM     46  N   THR G   6      13.388  38.066  47.144  1.00 71.86 LIG-0.34  N 
ATOM     47 H    THR G   6      13.617  38.403  46.387  1.00 71.86 LIG 0.16  HD
ATOM     48 O    ALA G   5      12.566  38.288  49.236  1.00 74.40 LIG-0.27  OA
BRANCH 46 49
ATOM     49  CA  THR G   6      13.570  36.606  47.232  1.00 72.17 LIG 0.20  C 
BRANCH 49 50
ATOM     50  CB  THR G   6      14.341  36.035  46.019  1.00 71.29 LIG 0.15  C 
ATOM     51  CG2 THR G   6      15.781  36.540  46.003  1.00 70.64 LIG 0.04  C 
BRANCH 50 52
ATOM     52 OG1  THR G   6      14.335  34.604  46.064  1.00 70.47 LIG-0.39  OA
ATOM     53 HG1  THR G   6      13.672  34.340  46.507  1.00 70.47 LIG 0.21  HD
ENDBRANCH 50 52
ENDBRANCH 49 50
BRANCH 49 54
ATOM     54  C   THR G   6      14.281  36.179  48.523  1.00 73.53 LIG 0.24  C 
ATOM     55  N   ALA G   7      13.756  35.145  49.189  1.00 73.25 LIG-0.35  N 
ATOM     56 H    ALA G   7      13.009  34.777  48.975  1.00 73.25 LIG 0.16  HD
ATOM     57 O    THR G   6      15.280  36.792  48.907  1.00 75.15 LIG-0.27  OA
BRANCH 55 58
ATOM     58  CA  ALA G   7      14.403  34.532  50.358  1.00 74.45 LIG 0.16  C 
ATOM     59  CB  ALA G   7      13.841  35.118  51.646  1.00 73.04 LIG 0.04  C 
BRANCH 58 60
ATOM     60  C   ALA G   7      14.216  33.015  50.345  1.00 76.13 LIG 0.22  C 
ATOM     61 O    ALA G   7      13.462  32.475  49.534  1.00 77.97 LIG-0.29  OA
ENDBRANCH 58 60
ENDBRANCH 55 58
ENDBRANCH 49 54
ENDBRANCH 46 49
ENDBRANCH 43 45
ENDBRANCH 40 43
ENDBRANCH 37 39
ENDBRANCH 34 37
ENDBRANCH 1 33
TORSDOF 22
ENDMDL
MODEL 37
USER: ADFR SOLUTION from run 138
USER: SCORE 15.878124 LL:  -3.927 LR: -14.998 RR:   0.000 FEB:  -8.435
USER: RMSD 3.464217
USER: SEED 137
USER: STATUS searching
USER: GENES 24
USER: genes 0 Translation |==|  0.33178 0.51344 0.44064
USER: genes 1 Rotation |==|  0.44810 0.55252 0.56006 0.99086
USER: genes 2 Torsion [CB]-CA--N-[C] |==|  0.25954
USER: genes 3 Torsion [N]-C--CA-[N] |==|  0.54365
USER: genes 4 Torsion [C]-CA--N-[C] |==|  0.77211
USER: genes 5 Torsion [N]-C--CA-[N] |==|  0.26498
USER: genes 6 Torsion [C]-CA--N-[H1] |==|  0.70804
USER: genes 7 Torsion [C]-CA--CB-[CG] |==|  0.46844
USER: genes 8 Torsion [CA]-CB--CG-[CD] |==|  0.97835
USER: genes 9 Torsion [CB]-CG--CD-[NE] |==|  0.36789
USER: genes 10 Torsion [CG]-CD--NE-[CZ] |==|  0.55949
USER: genes 11 Torsion [N]-CA--CB-[OG1] |==|  0.41083
USER: genes 12 Torsion [CA]-CB--OG1-[HG1] |==|  0.27249
USER: genes 13 Torsion [N]-CA--C-[N] |==|  0.46058
USER: genes 14 Torsion [C]-N--CA-[CB] |==|  0.55155
USER: genes 15 Torsion [N]-CA--C-[N] |==|  0.42560
USER: genes 16 Torsion [C]-N--CA-[CB] |==|  0.87777
USER: genes 17 Torsion [N]-CA--C-[N] |==|  0.89117
USER: genes 18 Torsion [C]-N--CA-[CB] |==|  0.51997
USER: genes 19 Torsion [N]-CA--CB-[CG2] |==|  0.53671
USER: genes 20 Torsion [CA]-CB--OG1-[HG1] |==|  0.20926
USER: genes 21 Torsion [N]-CA--C-[N] |==|  0.88077
USER: genes 22 Torsion [C]-N--CA-[C] |==|  0.55634
USER: genes 23 Torsion [N]-CA--C-[O] |==|  0.04721
ROOT
ATOM      1  CA  THR G   3      14.353  38.396  41.961  1.00 68.23 LIG 0.20  C 
ENDROOT
BRANCH 1 2
ATOM      2  N   THR G   3      15.770  38.349  41.613  1.00 68.42 LIG-0.34  N 
ATOM      3  C   ARG G   2      16.224  37.819  40.480  1.00 70.38 LIG 0.24  C 
ATOM      4 O    ARG G   2      15.511  37.219  39.668  1.00 69.46 LIG-0.27  OA
ATOM      5 H    THR G   3      16.283  38.697  42.209  1.00 68.42 LIG 0.16  HD
BRANCH 3 6
ATOM      6  CA  ARG G   2      17.723  37.964  40.240  1.00 72.62 LIG 0.18  C 
BRANCH 6 7
ATOM      7  N   ARG G   2      18.013  37.686  38.836  1.00 74.86 LIG-0.35  N 
ATOM      8  C   ALA G   1      18.145  36.446  38.372  1.00 76.29 LIG 0.25  C 
ATOM      9 O    ALA G   1      18.213  35.449  39.098  1.00 75.70 LIG-0.27  OA
ATOM     10 H    ARG G   2      18.088  38.389  38.346  1.00 74.86 LIG 0.16  HD
BRANCH 8 11
ATOM     11  CA  ALA G   1      18.224  36.305  36.860  1.00 78.97 LIG 0.27  C 
ATOM     12  CB  ALA G   1      17.472  35.055  36.417  1.00 79.33 LIG 0.05  C 
BRANCH 11 13
ATOM     13  N   ALA G   1      19.644  36.252  36.413  1.00 81.42 LIG-0.07  N 
ATOM     14 H3   ALA G   1      19.743  35.599  35.816  1.00 81.42 LIG 0.28  HD
ATOM     15 H2   ALA G   1      20.170  36.096  37.114  1.00 81.42 LIG 0.28  HD
ATOM     16 H1   ALA G   1      19.868  37.029  36.041  1.00 81.42 LIG 0.28  HD
ENDBRANCH 11 13
ENDBRANCH 8 11
ENDBRANCH 6 7
BRANCH 6 17
ATOM     17  CB  ARG G   2      18.205  39.365  40.631  1.00 73.45 LIG 0.04  C 
BRANCH 17 18
ATOM     18  CG  ARG G   2      19.718  39.486  40.675  1.00 75.79 LIG 0.02  C 
BRANCH 18 19
ATOM     19  CD  ARG G   2      20.412  38.143  40.507  1.00 77.52 LIG 0.14  C 
BRANCH 19 20
ATOM     20  NE  ARG G   2      21.493  38.221  39.521  1.00 80.25 LIG-0.23  N 
ATOM     21  CZ  ARG G   2      22.016  37.186  38.856  1.00 82.01 LIG 0.67  C 
ATOM     22  NH1 ARG G   2      21.577  35.939  39.044  1.00 81.47 LIG-0.23  N 
ATOM     23  NH2 ARG G   2      23.001  37.400  37.988  1.00 84.93 LIG-0.23  N 
ATOM     24 1HH1 ARG G   2      20.943  35.787  39.605  1.00 81.47 LIG 0.17  HD
ATOM     25 2HH1 ARG G   2      21.928  35.289  38.604  1.00 81.47 LIG 0.17  HD
ATOM     26 2HH2 ARG G   2      23.343  36.740  37.554  1.00 84.93 LIG 0.17  HD
ATOM     27 1HH2 ARG G   2      23.296  38.197  37.859  1.00 84.93 LIG 0.17  HD
ATOM     28 HE   ARG G   2      21.820  39.000  39.357  1.00 80.25 LIG 0.18  HD
ENDBRANCH 19 20
ENDBRANCH 18 19
ENDBRANCH 17 18
ENDBRANCH 6 17
ENDBRANCH 3 6
ENDBRANCH 1 2
BRANCH 1 29
ATOM     29  CB  THR G   3      13.929  37.179  42.817  1.00 68.23 LIG 0.15  C 
ATOM     30  CG2 THR G   3      15.108  36.634  43.600  1.00 68.63 LIG 0.04  C 
BRANCH 29 31
ATOM     31 OG1  THR G   3      12.885  37.554  43.725  1.00 67.51 LIG-0.39  OA
ATOM     32 HG1  THR G   3      12.141  37.332  43.404  1.00 67.51 LIG 0.21  HD
ENDBRANCH 29 31
ENDBRANCH 1 29
BRANCH 1 33
ATOM     33  C   THR G   3      14.037  39.680  42.720  1.00 68.02 LIG 0.24  C 
ATOM     34  N   ALA G   4      12.744  39.981  42.836  1.00 68.86 LIG-0.35  N 
ATOM     35 H    ALA G   4      12.117  39.521  42.471  1.00 68.86 LIG 0.16  HD
ATOM     36 O    THR G   3      14.940  40.378  43.184  1.00 67.54 LIG-0.27  OA
BRANCH 34 37
ATOM     37  CA  ALA G   4      12.266  41.134  43.604  1.00 69.75 LIG 0.17  C 
ATOM     38  CB  ALA G   4      10.792  40.965  43.934  1.00 70.86 LIG 0.04  C 
BRANCH 37 39
ATOM     39  C   ALA G   4      13.075  41.373  44.885  1.00 71.43 LIG 0.24  C 
ATOM     40  N   ALA G   5      13.114  42.625  45.346  1.00 71.85 LIG-0.35  N 
ATOM     41 H    ALA G   5      12.765  43.293  44.933  1.00 71.85 LIG 0.16  HD
ATOM     42 O    ALA G   4      13.648  40.431  45.440  1.00 72.80 LIG-0.27  OA
BRANCH 40 43
ATOM     43  CA  ALA G   5      13.765  42.979  46.612  1.00 72.89 LIG 0.17  C 
ATOM     44  CB  ALA G   5      13.402  41.974  47.698  1.00 72.65 LIG 0.04  C 
BRANCH 43 45
ATOM     45  C   ALA G   5      15.287  43.080  46.469  1.00 72.87 LIG 0.24  C 
ATOM     46  N   THR G   6      15.881  42.174  45.687  1.00 71.86 LIG-0.34  N 
ATOM     47 H    THR G   6      15.459  41.543  45.283  1.00 71.86 LIG 0.16  HD
ATOM     48 O    ALA G   5      15.906  43.968  47.059  1.00 74.40 LIG-0.27  OA
BRANCH 46 49
ATOM     49  CA  THR G   6      17.335  42.177  45.446  1.00 72.17 LIG 0.20  C 
BRANCH 49 50
ATOM     50  CB  THR G   6      17.755  41.145  44.373  1.00 71.29 LIG 0.15  C 
ATOM     51  CG2 THR G   6      19.268  40.941  44.379  1.00 70.64 LIG 0.04  C 
BRANCH 50 52
ATOM     52 OG1  THR G   6      17.101  39.893  44.615  1.00 70.47 LIG-0.39  OA
ATOM     53 HG1  THR G   6      16.296  39.947  44.380  1.00 70.47 LIG 0.21  HD
ENDBRANCH 50 52
ENDBRANCH 49 50
BRANCH 49 54
ATOM     54  C   THR G   6      17.861  43.561  45.042  1.00 73.53 LIG 0.24  C 
ATOM     55  N   ALA G   7      17.131  44.253  44.161  1.00 73.25 LIG-0.35  N 
ATOM     56 H    ALA G   7      16.443  43.927  43.760  1.00 73.25 LIG 0.16  HD
ATOM     57 O    THR G   6      18.920  43.978  45.517  1.00 75.15 LIG-0.27  OA
BRANCH 55 58
ATOM     58  CA  ALA G   7      17.428  45.643  43.789  1.00 74.45 LIG 0.16  C 
ATOM     59  CB  ALA G   7      18.587  45.695  42.804  1.00 73.04 LIG 0.04  C 
BRANCH 58 60
ATOM     60  C   ALA G   7      16.194  46.316  43.187  1.00 76.13 LIG 0.22  C 
ATOM     61 O    ALA G   7      15.070  45.836  43.341  1.00 77.97 LIG-0.29  OA
ENDBRANCH 58 60
ENDBRANCH 55 58
ENDBRANCH 49 54
ENDBRANCH 46 49
ENDBRANCH 43 45
ENDBRANCH 40 43
ENDBRANCH 37 39
ENDBRANCH 34 37
ENDBRANCH 1 33
TORSDOF 22
ENDMDL
MODEL 38
USER: ADFR SOLUTION from run 177
USER: SCORE 16.679204 LL:  -3.736 LR: -14.981 RR:   0.000 FEB:  -8.418
USER: RMSD 3.852768
USER: SEED 176
USER: STATUS searching
USER: GENES 24
USER: genes 0 Translation |==|  0.33330 0.49417 0.44638
USER: genes 1 Rotation |==|  0.48875 0.54993 0.57290 0.99200
USER: genes 2 Torsion [CB]-CA--N-[C] |==|  0.25556
USER: genes 3 Torsion [N]-C--CA-[N] |==|  0.52077
USER: genes 4 Torsion [C]-CA--N-[C] |==|  0.76055
USER: genes 5 Torsion [N]-C--CA-[N] |==|  0.29128
USER: genes 6 Torsion [C]-CA--N-[H1] |==|  0.02802
USER: genes 7 Torsion [C]-CA--CB-[CG] |==|  0.63159
USER: genes 8 Torsion [CA]-CB--CG-[CD] |==|  0.59461
USER: genes 9 Torsion [CB]-CG--CD-[NE] |==|  0.41884
USER: genes 10 Torsion [CG]-CD--NE-[CZ] |==|  0.29989
USER: genes 11 Torsion [N]-CA--CB-[OG1] |==|  0.02161
USER: genes 12 Torsion [CA]-CB--OG1-[HG1] |==|  0.38926
USER: genes 13 Torsion [N]-CA--C-[N] |==|  0.45415
USER: genes 14 Torsion [C]-N--CA-[CB] |==|  0.50567
USER: genes 15 Torsion [N]-CA--C-[N] |==|  0.48132
USER: genes 16 Torsion [C]-N--CA-[CB] |==|  0.54471
USER: genes 17 Torsion [N]-CA--C-[N] |==|  0.41158
USER: genes 18 Torsion [C]-N--CA-[CB] |==|  0.85475
USER: genes 19 Torsion [N]-CA--CB-[CG2] |==|  0.90017
USER: genes 20 Torsion [CA]-CB--OG1-[HG1] |==|  0.32334
USER: genes 21 Torsion [N]-CA--C-[N] |==|  0.91354
USER: genes 22 Torsion [C]-N--CA-[C] |==|  0.73489
USER: genes 23 Torsion [N]-CA--C-[O] |==|  0.91385
ROOT
ATOM      1  CA  THR G   3      14.387  38.049  42.077  1.00 68.23 LIG 0.20  C 
ENDROOT
BRANCH 1 2
ATOM      2  N   THR G   3      15.799  38.110  41.710  1.00 68.42 LIG-0.34  N 
ATOM      3  C   ARG G   2      16.255  37.765  40.509  1.00 70.38 LIG 0.24  C 
ATOM      4 O    ARG G   2      15.551  37.258  39.627  1.00 69.46 LIG-0.27  OA
ATOM      5 H    THR G   3      16.308  38.391  42.343  1.00 68.42 LIG 0.16  HD
BRANCH 3 6
ATOM      6  CA  ARG G   2      17.743  38.004  40.275  1.00 72.62 LIG 0.18  C 
BRANCH 6 7
ATOM      7  N   ARG G   2      18.054  37.748  38.872  1.00 74.86 LIG-0.35  N 
ATOM      8  C   ALA G   1      18.346  36.529  38.422  1.00 76.29 LIG 0.25  C 
ATOM      9 O    ALA G   1      18.550  35.560  39.159  1.00 75.70 LIG-0.27  OA
ATOM     10 H    ARG G   2      18.032  38.448  38.372  1.00 74.86 LIG 0.16  HD
BRANCH 8 11
ATOM     11  CA  ALA G   1      18.430  36.379  36.911  1.00 78.97 LIG 0.27  C 
ATOM     12  CB  ALA G   1      17.641  35.152  36.468  1.00 79.33 LIG 0.05  C 
BRANCH 11 13
ATOM     13  N   ALA G   1      19.850  36.279  36.473  1.00 81.42 LIG-0.07  N 
ATOM     14 H3   ALA G   1      20.080  37.021  36.038  1.00 81.42 LIG 0.28  HD
ATOM     15 H2   ALA G   1      19.945  35.577  35.935  1.00 81.42 LIG 0.28  HD
ATOM     16 H1   ALA G   1      20.374  36.179  37.186  1.00 81.42 LIG 0.28  HD
ENDBRANCH 11 13
ENDBRANCH 8 11
ENDBRANCH 6 7
BRANCH 6 17
ATOM     17  CB  ARG G   2      18.134  39.432  40.670  1.00 73.45 LIG 0.04  C 
BRANCH 17 18
ATOM     18  CG  ARG G   2      18.981  40.131  39.620  1.00 75.79 LIG 0.02  C 
BRANCH 18 19
ATOM     19  CD  ARG G   2      20.003  41.075  40.235  1.00 77.52 LIG 0.14  C 
BRANCH 19 20
ATOM     20  NE  ARG G   2      21.192  41.198  39.389  1.00 80.25 LIG-0.23  N 
ATOM     21  CZ  ARG G   2      21.524  42.271  38.664  1.00 82.01 LIG 0.67  C 
ATOM     22  NH1 ARG G   2      20.764  43.368  38.648  1.00 81.47 LIG-0.23  N 
ATOM     23  NH2 ARG G   2      22.636  42.246  37.933  1.00 84.93 LIG-0.23  N 
ATOM     24 1HH1 ARG G   2      20.040  43.396  39.113  1.00 81.47 LIG 0.17  HD
ATOM     25 2HH1 ARG G   2      20.997  44.046  38.174  1.00 81.47 LIG 0.17  HD
ATOM     26 2HH2 ARG G   2      22.858  42.931  37.464  1.00 84.93 LIG 0.17  HD
ATOM     27 1HH2 ARG G   2      23.134  41.544  37.931  1.00 84.93 LIG 0.17  HD
ATOM     28 HE   ARG G   2      21.723  40.521  39.356  1.00 80.25 LIG 0.18  HD
ENDBRANCH 19 20
ENDBRANCH 18 19
ENDBRANCH 17 18
ENDBRANCH 6 17
ENDBRANCH 3 6
ENDBRANCH 1 2
BRANCH 1 29
ATOM     29  CB  THR G   3      14.017  36.693  42.724  1.00 68.23 LIG 0.15  C 
ATOM     30  CG2 THR G   3      13.069  35.912  41.833  1.00 68.63 LIG 0.04  C 
BRANCH 29 31
ATOM     31 OG1  THR G   3      15.201  35.918  42.957  1.00 67.51 LIG-0.39  OA
ATOM     32 HG1  THR G   3      15.138  35.528  43.697  1.00 67.51 LIG 0.21  HD
ENDBRANCH 29 31
ENDBRANCH 1 29
BRANCH 1 33
ATOM     33  C   THR G   3      14.042  39.177  43.043  1.00 68.02 LIG 0.24  C 
ATOM     34  N   ALA G   4      12.745  39.441  43.186  1.00 68.86 LIG-0.35  N 
ATOM     35 H    ALA G   4      12.129  39.046  42.734  1.00 68.86 LIG 0.16  HD
ATOM     36 O    THR G   3      14.929  39.792  43.639  1.00 67.54 LIG-0.27  OA
BRANCH 34 37
ATOM     37  CA  ALA G   4      12.239  40.438  44.134  1.00 69.75 LIG 0.17  C 
ATOM     38  CB  ALA G   4      10.720  40.470  44.096  1.00 70.86 LIG 0.04  C 
BRANCH 37 39
ATOM     39  C   ALA G   4      12.731  40.199  45.567  1.00 71.43 LIG 0.24  C 
ATOM     40  N   ALA G   5      12.432  41.136  46.469  1.00 71.85 LIG-0.35  N 
ATOM     41 H    ALA G   5      12.039  41.876  46.272  1.00 71.85 LIG 0.16  HD
ATOM     42 O    ALA G   4      13.368  39.177  45.841  1.00 72.80 LIG-0.27  OA
BRANCH 40 43
ATOM     43  CA  ALA G   5      12.752  40.991  47.893  1.00 72.89 LIG 0.17  C 
ATOM     44  CB  ALA G   5      11.962  41.996  48.722  1.00 72.65 LIG 0.04  C 
BRANCH 43 45
ATOM     45  C   ALA G   5      12.496  39.567  48.398  1.00 72.87 LIG 0.24  C 
ATOM     46  N   THR G   6      13.291  39.121  49.374  1.00 71.86 LIG-0.34  N 
ATOM     47 H    THR G   6      13.934  39.581  49.713  1.00 71.86 LIG 0.16  HD
ATOM     48 O    ALA G   5      11.590  38.890  47.907  1.00 74.40 LIG-0.27  OA
BRANCH 46 49
ATOM     49  CA  THR G   6      13.134  37.781  49.965  1.00 72.17 LIG 0.20  C 
BRANCH 49 50
ATOM     50  CB  THR G   6      11.687  37.513  50.439  1.00 71.29 LIG 0.15  C 
ATOM     51  CG2 THR G   6      11.056  38.783  51.005  1.00 70.64 LIG 0.04  C 
BRANCH 50 52
ATOM     52 OG1  THR G   6      10.895  37.029  49.348  1.00 70.47 LIG-0.39  OA
ATOM     53 HG1  THR G   6      10.638  36.246  49.513  1.00 70.47 LIG 0.21  HD
ENDBRANCH 50 52
ENDBRANCH 49 50
BRANCH 49 54
ATOM     54  C   THR G   6      13.562  36.661  49.006  1.00 73.53 LIG 0.24  C 
ATOM     55  N   ALA G   7      13.392  36.886  47.699  1.00 73.25 LIG-0.35  N 
ATOM     56 H    ALA G   7      12.986  37.578  47.389  1.00 73.25 LIG 0.16  HD
ATOM     57 O    THR G   6      14.024  35.610  49.456  1.00 75.15 LIG-0.27  OA
BRANCH 55 58
ATOM     58  CA  ALA G   7      13.884  35.974  46.657  1.00 74.45 LIG 0.16  C 
ATOM     59  CB  ALA G   7      12.889  35.892  45.508  1.00 73.04 LIG 0.04  C 
BRANCH 58 60
ATOM     60  C   ALA G   7      15.248  36.429  46.140  1.00 76.13 LIG 0.22  C 
ATOM     61 O    ALA G   7      15.553  37.622  46.116  1.00 77.97 LIG-0.29  OA
ENDBRANCH 58 60
ENDBRANCH 55 58
ENDBRANCH 49 54
ENDBRANCH 46 49
ENDBRANCH 43 45
ENDBRANCH 40 43
ENDBRANCH 37 39
ENDBRANCH 34 37
ENDBRANCH 1 33
TORSDOF 22
ENDMDL
MODEL 39
USER: ADFR SOLUTION from run 79
USER: SCORE 15.584741 LL:  -3.369 LR: -14.973 RR:   0.000 FEB:  -8.410
USER: RMSD 3.823291
USER: SEED 78
USER: STATUS searching
USER: GENES 24
USER: genes 0 Translation |==|  0.32203 0.47661 0.44791
USER: genes 1 Rotation |==|  0.53141 0.54352 0.55437 0.99413
USER: genes 2 Torsion [CB]-CA--N-[C] |==|  0.24339
USER: genes 3 Torsion [N]-C--CA-[N] |==|  0.51659
USER: genes 4 Torsion [C]-CA--N-[C] |==|  0.74003
USER: genes 5 Torsion [N]-C--CA-[N] |==|  0.28136
USER: genes 6 Torsion [C]-CA--N-[H1] |==|  0.36879
USER: genes 7 Torsion [C]-CA--CB-[CG] |==|  0.51650
USER: genes 8 Torsion [CA]-CB--CG-[CD] |==|  0.92726
USER: genes 9 Torsion [CB]-CG--CD-[NE] |==|  0.41429
USER: genes 10 Torsion [CG]-CD--NE-[CZ] |==|  0.55134
USER: genes 11 Torsion [N]-CA--CB-[OG1] |==|  0.54426
USER: genes 12 Torsion [CA]-CB--OG1-[HG1] |==|  0.80425
USER: genes 13 Torsion [N]-CA--C-[N] |==|  0.40350
USER: genes 14 Torsion [C]-N--CA-[CB] |==|  0.54291
USER: genes 15 Torsion [N]-CA--C-[N] |==|  0.78244
USER: genes 16 Torsion [C]-N--CA-[CB] |==|  0.83856
USER: genes 17 Torsion [N]-CA--C-[N] |==|  0.98326
USER: genes 18 Torsion [C]-N--CA-[CB] |==|  0.86080
USER: genes 19 Torsion [N]-CA--CB-[CG2] |==|  0.55244
USER: genes 20 Torsion [CA]-CB--OG1-[HG1] |==|  0.82931
USER: genes 21 Torsion [N]-CA--C-[N] |==|  0.88409
USER: genes 22 Torsion [C]-N--CA-[C] |==|  0.76496
USER: genes 23 Torsion [N]-CA--C-[O] |==|  0.98295
ROOT
ATOM      1  CA  THR G   3      14.134  37.733  42.108  1.00 68.23 LIG 0.20  C 
ENDROOT
BRANCH 1 2
ATOM      2  N   THR G   3      15.548  37.726  41.749  1.00 68.42 LIG-0.34  N 
ATOM      3  C   ARG G   2      15.988  37.458  40.522  1.00 70.38 LIG 0.24  C 
ATOM      4 O    ARG G   2      15.256  37.085  39.598  1.00 69.46 LIG-0.27  OA
ATOM      5 H    THR G   3      16.072  37.910  42.406  1.00 68.42 LIG 0.16  HD
BRANCH 3 6
ATOM      6  CA  ARG G   2      17.491  37.610  40.313  1.00 72.62 LIG 0.18  C 
BRANCH 6 7
ATOM      7  N   ARG G   2      17.798  37.424  38.898  1.00 74.86 LIG-0.35  N 
ATOM      8  C   ALA G   1      18.152  36.242  38.399  1.00 76.29 LIG 0.25  C 
ATOM      9 O    ALA G   1      18.420  35.259  39.097  1.00 75.70 LIG-0.27  OA
ATOM     10 H    ARG G   2      17.730  38.140  38.425  1.00 74.86 LIG 0.16  HD
BRANCH 8 11
ATOM     11  CA  ALA G   1      18.225  36.153  36.883  1.00 78.97 LIG 0.27  C 
ATOM     12  CB  ALA G   1      17.578  34.856  36.408  1.00 79.33 LIG 0.05  C 
BRANCH 11 13
ATOM     13  N   ALA G   1      19.638  36.236  36.421  1.00 81.42 LIG-0.07  N 
ATOM     14 H3   ALA G   1      20.185  36.136  37.117  1.00 81.42 LIG 0.28  HD
ATOM     15 H2   ALA G   1      19.781  37.029  36.043  1.00 81.42 LIG 0.28  HD
ATOM     16 H1   ALA G   1      19.795  35.592  35.827  1.00 81.42 LIG 0.28  HD
ENDBRANCH 11 13
ENDBRANCH 8 11
ENDBRANCH 6 7
BRANCH 6 17
ATOM     17  CB  ARG G   2      17.974  38.979  40.802  1.00 73.45 LIG 0.04  C 
BRANCH 17 18
ATOM     18  CG  ARG G   2      19.436  39.244  40.488  1.00 75.79 LIG 0.02  C 
BRANCH 18 19
ATOM     19  CD  ARG G   2      20.243  37.961  40.363  1.00 77.52 LIG 0.14  C 
BRANCH 19 20
ATOM     20  NE  ARG G   2      21.347  38.116  39.412  1.00 80.25 LIG-0.23  N 
ATOM     21  CZ  ARG G   2      22.012  37.118  38.821  1.00 82.01 LIG 0.67  C 
ATOM     22  NH1 ARG G   2      21.712  35.839  39.061  1.00 81.47 LIG-0.23  N 
ATOM     23  NH2 ARG G   2      23.000  37.402  37.977  1.00 84.93 LIG-0.23  N 
ATOM     24 1HH1 ARG G   2      21.078  35.641  39.607  1.00 81.47 LIG 0.17  HD
ATOM     25 2HH1 ARG G   2      22.153  35.213  38.669  1.00 81.47 LIG 0.17  HD
ATOM     26 2HH2 ARG G   2      23.434  36.766  37.592  1.00 84.93 LIG 0.17  HD
ATOM     27 1HH2 ARG G   2      23.207  38.221  37.816  1.00 84.93 LIG 0.17  HD
ATOM     28 HE   ARG G   2      21.588  38.918  39.217  1.00 80.25 LIG 0.18  HD
ENDBRANCH 19 20
ENDBRANCH 18 19
ENDBRANCH 17 18
ENDBRANCH 6 17
ENDBRANCH 3 6
ENDBRANCH 1 2
BRANCH 1 29
ATOM     29  CB  THR G   3      13.637  36.329  42.525  1.00 68.23 LIG 0.15  C 
ATOM     30  CG2 THR G   3      14.138  35.970  43.912  1.00 68.63 LIG 0.04  C 
BRANCH 29 31
ATOM     31 OG1  THR G   3      12.204  36.287  42.510  1.00 67.51 LIG-0.39  OA
ATOM     32 HG1  THR G   3      11.904  36.749  43.144  1.00 67.51 LIG 0.21  HD
ENDBRANCH 29 31
ENDBRANCH 1 29
BRANCH 1 33
ATOM     33  C   THR G   3      13.882  38.714  43.248  1.00 68.02 LIG 0.24  C 
ATOM     34  N   ALA G   4      12.715  39.356  43.212  1.00 68.86 LIG-0.35  N 
ATOM     35 H    ALA G   4      12.149  39.273  42.570  1.00 68.86 LIG 0.16  HD
ATOM     36 O    THR G   3      14.724  38.887  44.131  1.00 67.54 LIG-0.27  OA
BRANCH 34 37
ATOM     37  CA  ALA G   4      12.282  40.271  44.272  1.00 69.75 LIG 0.17  C 
ATOM     38  CB  ALA G   4      10.792  40.543  44.150  1.00 70.86 LIG 0.04  C 
BRANCH 37 39
ATOM     39  C   ALA G   4      12.616  39.754  45.677  1.00 71.43 LIG 0.24  C 
ATOM     40  N   ALA G   5      11.812  38.812  46.176  1.00 71.85 LIG-0.35  N 
ATOM     41 H    ALA G   5      11.101  38.535  45.779  1.00 71.85 LIG 0.16  HD
ATOM     42 O    ALA G   4      13.588  40.205  46.289  1.00 72.80 LIG-0.27  OA
BRANCH 40 43
ATOM     43  CA  ALA G   5      12.069  38.157  47.463  1.00 72.89 LIG 0.17  C 
ATOM     44  CB  ALA G   5      13.434  37.482  47.454  1.00 72.65 LIG 0.04  C 
BRANCH 43 45
ATOM     45  C   ALA G   5      11.968  39.136  48.638  1.00 72.87 LIG 0.24  C 
ATOM     46  N   THR G   6      11.793  40.425  48.336  1.00 71.86 LIG-0.34  N 
ATOM     47 H    THR G   6      11.751  40.724  47.531  1.00 71.86 LIG 0.16  HD
ATOM     48 O    ALA G   5      12.047  38.721  49.797  1.00 74.40 LIG-0.27  OA
BRANCH 46 49
ATOM     49  CA  THR G   6      11.655  41.464  49.371  1.00 72.17 LIG 0.20  C 
BRANCH 49 50
ATOM     50  CB  THR G   6      10.600  41.093  50.439  1.00 71.29 LIG 0.15  C 
ATOM     51  CG2 THR G   6      10.144  42.332  51.206  1.00 70.64 LIG 0.04  C 
BRANCH 50 52
ATOM     52 OG1  THR G   6       9.470  40.472  49.816  1.00 70.47 LIG-0.39  OA
ATOM     53 HG1  THR G   6       9.115  41.010  49.277  1.00 70.47 LIG 0.21  HD
ENDBRANCH 50 52
ENDBRANCH 49 50
BRANCH 49 54
ATOM     54  C   THR G   6      12.986  41.778  50.070  1.00 73.53 LIG 0.24  C 
ATOM     55  N   ALA G   7      13.768  40.738  50.377  1.00 73.25 LIG-0.35  N 
ATOM     56 H    ALA G   7      13.524  39.919  50.279  1.00 73.25 LIG 0.16  HD
ATOM     57 O    THR G   6      13.280  42.946  50.334  1.00 75.15 LIG-0.27  OA
BRANCH 55 58
ATOM     58  CA  ALA G   7      15.128  40.888  50.915  1.00 74.45 LIG 0.16  C 
ATOM     59  CB  ALA G   7      15.505  39.677  51.755  1.00 73.04 LIG 0.04  C 
BRANCH 58 60
ATOM     60  C   ALA G   7      16.138  41.080  49.784  1.00 76.13 LIG 0.22  C 
ATOM     61 O    ALA G   7      15.796  40.983  48.604  1.00 77.97 LIG-0.29  OA
ENDBRANCH 58 60
ENDBRANCH 55 58
ENDBRANCH 49 54
ENDBRANCH 46 49
ENDBRANCH 43 45
ENDBRANCH 40 43
ENDBRANCH 37 39
ENDBRANCH 34 37
ENDBRANCH 1 33
TORSDOF 22
ENDMDL
MODEL 40
USER: ADFR SOLUTION from run 115
USER: SCORE 16.903692 LL:  -4.020 LR: -14.966 RR:   0.000 FEB:  -8.404
USER: RMSD 3.071593
USER: SEED 114
USER: STATUS no improvement in best in 20 clusters for 5 generations
USER: GENES 24
USER: genes 0 Translation |==|  0.32690 0.47856 0.44815
USER: genes 1 Rotation |==|  0.55020 0.54395 0.55473 0.99250
USER: genes 2 Torsion [CB]-CA--N-[C] |==|  0.22659
USER: genes 3 Torsion [N]-C--CA-[N] |==|  0.51515
USER: genes 4 Torsion [C]-CA--N-[C] |==|  0.75522
USER: genes 5 Torsion [N]-C--CA-[N] |==|  0.26463
USER: genes 6 Torsion [C]-CA--N-[H1] |==|  0.03914
USER: genes 7 Torsion [C]-CA--CB-[CG] |==|  0.63539
USER: genes 8 Torsion [CA]-CB--CG-[CD] |==|  0.56740
USER: genes 9 Torsion [CB]-CG--CD-[NE] |==|  0.42593
USER: genes 10 Torsion [CG]-CD--NE-[CZ] |==|  0.30176
USER: genes 11 Torsion [N]-CA--CB-[OG1] |==|  0.54230
USER: genes 12 Torsion [CA]-CB--OG1-[HG1] |==|  0.78543
USER: genes 13 Torsion [N]-CA--C-[N] |==|  0.41329
USER: genes 14 Torsion [C]-N--CA-[CB] |==|  0.49590
USER: genes 15 Torsion [N]-CA--C-[N] |==|  0.33553
USER: genes 16 Torsion [C]-N--CA-[CB] |==|  0.84362
USER: genes 17 Torsion [N]-CA--C-[N] |==|  0.40441
USER: genes 18 Torsion [C]-N--CA-[CB] |==|  0.86111
USER: genes 19 Torsion [N]-CA--CB-[CG2] |==|  0.39054
USER: genes 20 Torsion [CA]-CB--OG1-[HG1] |==|  0.31345
USER: genes 21 Torsion [N]-CA--C-[N] |==|  0.88610
USER: genes 22 Torsion [C]-N--CA-[C] |==|  0.64707
USER: genes 23 Torsion [N]-CA--C-[O] |==|  0.99041
ROOT
ATOM      1  CA  THR G   3      14.243  37.768  42.113  1.00 68.23 LIG 0.20  C 
ENDROOT
BRANCH 1 2
ATOM      2  N   THR G   3      15.654  37.782  41.740  1.00 68.42 LIG-0.34  N 
ATOM      3  C   ARG G   2      16.087  37.490  40.516  1.00 70.38 LIG 0.24  C 
ATOM      4 O    ARG G   2      15.356  37.076  39.610  1.00 69.46 LIG-0.27  OA
ATOM      5 H    THR G   3      16.180  37.996  42.386  1.00 68.42 LIG 0.16  HD
BRANCH 3 6
ATOM      6  CA  ARG G   2      17.584  37.670  40.287  1.00 72.62 LIG 0.18  C 
BRANCH 6 7
ATOM      7  N   ARG G   2      17.884  37.439  38.876  1.00 74.86 LIG-0.35  N 
ATOM      8  C   ALA G   1      18.157  36.227  38.399  1.00 76.29 LIG 0.25  C 
ATOM      9 O    ALA G   1      18.354  35.240  39.114  1.00 75.70 LIG-0.27  OA
ATOM     10 H    ARG G   2      17.867  38.150  38.392  1.00 74.86 LIG 0.16  HD
BRANCH 8 11
ATOM     11  CA  ALA G   1      18.230  36.108  36.885  1.00 78.97 LIG 0.27  C 
ATOM     12  CB  ALA G   1      17.629  34.780  36.440  1.00 79.33 LIG 0.05  C 
BRANCH 11 13
ATOM     13  N   ALA G   1      19.638  36.232  36.417  1.00 81.42 LIG-0.07  N 
ATOM     14 H3   ALA G   1      19.757  37.029  36.039  1.00 81.42 LIG 0.28  HD
ATOM     15 H2   ALA G   1      19.810  35.593  35.822  1.00 81.42 LIG 0.28  HD
ATOM     16 H1   ALA G   1      20.190  36.148  37.110  1.00 81.42 LIG 0.28  HD
ENDBRANCH 11 13
ENDBRANCH 8 11
ENDBRANCH 6 7
BRANCH 6 17
ATOM     17  CB  ARG G   2      18.040  39.067  40.721  1.00 73.45 LIG 0.04  C 
BRANCH 17 18
ATOM     18  CG  ARG G   2      18.889  39.770  39.677  1.00 75.79 LIG 0.02  C 
BRANCH 18 19
ATOM     19  CD  ARG G   2      19.797  40.828  40.285  1.00 77.52 LIG 0.14  C 
BRANCH 19 20
ATOM     20  NE  ARG G   2      20.992  41.040  39.465  1.00 80.25 LIG-0.23  N 
ATOM     21  CZ  ARG G   2      21.245  42.122  38.722  1.00 82.01 LIG 0.67  C 
ATOM     22  NH1 ARG G   2      20.389  43.145  38.663  1.00 81.47 LIG-0.23  N 
ATOM     23  NH2 ARG G   2      22.373  42.183  38.020  1.00 84.93 LIG-0.23  N 
ATOM     24 1HH1 ARG G   2      19.654  43.117  39.108  1.00 81.47 LIG 0.17  HD
ATOM     25 2HH1 ARG G   2      20.573  43.832  38.178  1.00 81.47 LIG 0.17  HD
ATOM     26 2HH2 ARG G   2      22.545  42.875  37.540  1.00 84.93 LIG 0.17  HD
ATOM     27 1HH2 ARG G   2      22.932  41.530  38.046  1.00 84.93 LIG 0.17  HD
ATOM     28 HE   ARG G   2      21.582  40.414  39.461  1.00 80.25 LIG 0.18  HD
ENDBRANCH 19 20
ENDBRANCH 18 19
ENDBRANCH 17 18
ENDBRANCH 6 17
ENDBRANCH 3 6
ENDBRANCH 1 2
BRANCH 1 29
ATOM     29  CB  THR G   3      13.744  36.338  42.430  1.00 68.23 LIG 0.15  C 
ATOM     30  CG2 THR G   3      14.272  35.868  43.772  1.00 68.63 LIG 0.04  C 
BRANCH 29 31
ATOM     31 OG1  THR G   3      12.311  36.308  42.442  1.00 67.51 LIG-0.39  OA
ATOM     32 HG1  THR G   3      12.030  36.638  43.162  1.00 67.51 LIG 0.21  HD
ENDBRANCH 29 31
ENDBRANCH 1 29
BRANCH 1 33
ATOM     33  C   THR G   3      14.008  38.663  43.325  1.00 68.02 LIG 0.24  C 
ATOM     34  N   ALA G   4      12.815  39.253  43.386  1.00 68.86 LIG-0.35  N 
ATOM     35 H    ALA G   4      12.221  39.186  42.768  1.00 68.86 LIG 0.16  HD
ATOM     36 O    THR G   3      14.885  38.816  44.178  1.00 67.54 LIG-0.27  OA
BRANCH 34 37
ATOM     37  CA  ALA G   4      12.398  40.078  44.523  1.00 69.75 LIG 0.17  C 
ATOM     38  CB  ALA G   4      11.006  40.636  44.279  1.00 70.86 LIG 0.04  C 
BRANCH 37 39
ATOM     39  C   ALA G   4      12.441  39.320  45.856  1.00 71.43 LIG 0.24  C 
ATOM     40  N   ALA G   5      13.232  39.822  46.807  1.00 71.85 LIG-0.35  N 
ATOM     41 H    ALA G   5      13.748  40.499  46.686  1.00 71.85 LIG 0.16  HD
ATOM     42 O    ALA G   4      11.764  38.300  46.011  1.00 72.80 LIG-0.27  OA
BRANCH 40 43
ATOM     43  CA  ALA G   5      13.293  39.259  48.160  1.00 72.89 LIG 0.17  C 
ATOM     44  CB  ALA G   5      11.907  39.234  48.791  1.00 72.65 LIG 0.04  C 
BRANCH 43 45
ATOM     45  C   ALA G   5      13.908  37.856  48.172  1.00 72.87 LIG 0.24  C 
ATOM     46  N   THR G   6      14.647  37.530  49.237  1.00 71.86 LIG-0.34  N 
ATOM     47 H    THR G   6      14.800  38.065  49.892  1.00 71.86 LIG 0.16  HD
ATOM     48 O    ALA G   5      13.712  37.087  47.229  1.00 74.40 LIG-0.27  OA
BRANCH 46 49
ATOM     49  CA  THR G   6      15.272  36.204  49.383  1.00 72.17 LIG 0.20  C 
BRANCH 49 50
ATOM     50  CB  THR G   6      14.270  35.051  49.143  1.00 71.29 LIG 0.15  C 
ATOM     51  CG2 THR G   6      14.927  33.912  48.366  1.00 70.64 LIG 0.04  C 
BRANCH 50 52
ATOM     52 OG1  THR G   6      13.782  34.557  50.396  1.00 70.47 LIG-0.39  OA
ATOM     53 HG1  THR G   6      12.964  34.736  50.469  1.00 70.47 LIG 0.21  HD
ENDBRANCH 50 52
ENDBRANCH 49 50
BRANCH 49 54
ATOM     54  C   THR G   6      16.481  36.018  48.454  1.00 73.53 LIG 0.24  C 
ATOM     55  N   ALA G   7      16.366  36.493  47.210  1.00 73.25 LIG-0.35  N 
ATOM     56 H    ALA G   7      15.632  36.812  46.893  1.00 73.25 LIG 0.16  HD
ATOM     57 O    THR G   6      17.489  35.440  48.867  1.00 75.15 LIG-0.27  OA
BRANCH 55 58
ATOM     58  CA  ALA G   7      17.483  36.518  46.255  1.00 74.45 LIG 0.16  C 
ATOM     59  CB  ALA G   7      17.245  35.520  45.131  1.00 73.04 LIG 0.04  C 
BRANCH 58 60
ATOM     60  C   ALA G   7      17.671  37.922  45.681  1.00 76.13 LIG 0.22  C 
ATOM     61 O    ALA G   7      16.902  38.838  45.978  1.00 77.97 LIG-0.29  OA
ENDBRANCH 58 60
ENDBRANCH 55 58
ENDBRANCH 49 54
ENDBRANCH 46 49
ENDBRANCH 43 45
ENDBRANCH 40 43
ENDBRANCH 37 39
ENDBRANCH 34 37
ENDBRANCH 1 33
TORSDOF 22
ENDMDL
MODEL 41
USER: ADFR SOLUTION from run 97
USER: SCORE 16.485329 LL:  -3.396 LR: -14.848 RR:   0.000 FEB:  -8.285
USER: RMSD 4.137995
USER: SEED 96
USER: STATUS searching
USER: GENES 24
USER: genes 0 Translation |==|  0.32103 0.47448 0.47202
USER: genes 1 Rotation |==|  0.67161 0.53436 0.55417 0.96523
USER: genes 2 Torsion [CB]-CA--N-[C] |==|  0.16591
USER: genes 3 Torsion [N]-C--CA-[N] |==|  0.49616
USER: genes 4 Torsion [C]-CA--N-[C] |==|  0.75781
USER: genes 5 Torsion [N]-C--CA-[N] |==|  0.28199
USER: genes 6 Torsion [C]-CA--N-[H1] |==|  0.52075
USER: genes 7 Torsion [C]-CA--CB-[CG] |==|  0.52552
USER: genes 8 Torsion [CA]-CB--CG-[CD] |==|  0.30123
USER: genes 9 Torsion [CB]-CG--CD-[NE] |==|  0.53719
USER: genes 10 Torsion [CG]-CD--NE-[CZ] |==|  0.59671
USER: genes 11 Torsion [N]-CA--CB-[OG1] |==|  0.51051
USER: genes 12 Torsion [CA]-CB--OG1-[HG1] |==|  0.90168
USER: genes 13 Torsion [N]-CA--C-[N] |==|  0.42901
USER: genes 14 Torsion [C]-N--CA-[CB] |==|  0.83389
USER: genes 15 Torsion [N]-CA--C-[N] |==|  0.41015
USER: genes 16 Torsion [C]-N--CA-[CB] |==|  0.85000
USER: genes 17 Torsion [N]-CA--C-[N] |==|  0.98411
USER: genes 18 Torsion [C]-N--CA-[CB] |==|  0.85997
USER: genes 19 Torsion [N]-CA--CB-[CG2] |==|  0.46407
USER: genes 20 Torsion [CA]-CB--OG1-[HG1] |==|  0.39135
USER: genes 21 Torsion [N]-CA--C-[N] |==|  0.90437
USER: genes 22 Torsion [C]-N--CA-[C] |==|  0.69948
USER: genes 23 Torsion [N]-CA--C-[O] |==|  0.99779
ROOT
ATOM      1  CA  THR G   3      14.111  37.695  42.596  1.00 68.23 LIG 0.20  C 
ENDROOT
BRANCH 1 2
ATOM      2  N   THR G   3      15.516  37.844  42.228  1.00 68.42 LIG-0.34  N 
ATOM      3  C   ARG G   2      15.956  37.741  40.976  1.00 70.38 LIG 0.24  C 
ATOM      4 O    ARG G   2      15.243  37.404  40.024  1.00 69.46 LIG-0.27  OA
ATOM      5 H    THR G   3      16.032  38.004  42.897  1.00 68.42 LIG 0.16  HD
BRANCH 3 6
ATOM      6  CA  ARG G   2      17.437  38.041  40.773  1.00 72.62 LIG 0.18  C 
BRANCH 6 7
ATOM      7  N   ARG G   2      17.774  37.855  39.364  1.00 74.86 LIG-0.35  N 
ATOM      8  C   ALA G   1      18.130  36.671  38.871  1.00 76.29 LIG 0.25  C 
ATOM      9 O    ALA G   1      18.377  35.685  39.573  1.00 75.70 LIG-0.27  OA
ATOM     10 H    ARG G   2      17.720  38.572  38.891  1.00 74.86 LIG 0.16  HD
BRANCH 8 11
ATOM     11  CA  ALA G   1      18.235  36.584  37.356  1.00 78.97 LIG 0.27  C 
ATOM     12  CB  ALA G   1      17.586  35.296  36.865  1.00 79.33 LIG 0.05  C 
BRANCH 11 13
ATOM     13  N   ALA G   1      19.659  36.654  36.925  1.00 81.42 LIG-0.07  N 
ATOM     14 H3   ALA G   1      20.087  35.921  37.194  1.00 81.42 LIG 0.28  HD
ATOM     15 H2   ALA G   1      20.044  37.371  37.286  1.00 81.42 LIG 0.28  HD
ATOM     16 H1   ALA G   1      19.699  36.711  36.038  1.00 81.42 LIG 0.28  HD
ENDBRANCH 11 13
ENDBRANCH 8 11
ENDBRANCH 6 7
BRANCH 6 17
ATOM     17  CB  ARG G   2      17.775  39.462  41.232  1.00 73.45 LIG 0.04  C 
BRANCH 17 18
ATOM     18  CG  ARG G   2      19.180  39.896  40.852  1.00 75.79 LIG 0.02  C 
BRANCH 18 19
ATOM     19  CD  ARG G   2      19.185  40.939  39.745  1.00 77.52 LIG 0.14  C 
BRANCH 19 20
ATOM     20  NE  ARG G   2      20.526  41.109  39.179  1.00 80.25 LIG-0.23  N 
ATOM     21  CZ  ARG G   2      21.042  42.259  38.734  1.00 82.01 LIG 0.67  C 
ATOM     22  NH1 ARG G   2      20.347  43.398  38.768  1.00 81.47 LIG-0.23  N 
ATOM     23  NH2 ARG G   2      22.277  42.270  38.239  1.00 84.93 LIG-0.23  N 
ATOM     24 1HH1 ARG G   2      19.546  43.404  39.081  1.00 81.47 LIG 0.17  HD
ATOM     25 2HH1 ARG G   2      20.700  44.126  38.476  1.00 81.47 LIG 0.17  HD
ATOM     26 2HH2 ARG G   2      22.618  43.005  37.950  1.00 84.93 LIG 0.17  HD
ATOM     27 1HH2 ARG G   2      22.735  41.543  38.207  1.00 84.93 LIG 0.17  HD
ATOM     28 HE   ARG G   2      21.023  40.409  39.129  1.00 80.25 LIG 0.18  HD
ENDBRANCH 19 20
ENDBRANCH 18 19
ENDBRANCH 17 18
ENDBRANCH 6 17
ENDBRANCH 3 6
ENDBRANCH 1 2
BRANCH 1 29
ATOM     29  CB  THR G   3      13.557  36.303  42.208  1.00 68.23 LIG 0.15  C 
ATOM     30  CG2 THR G   3      14.292  35.204  42.953  1.00 68.63 LIG 0.04  C 
BRANCH 29 31
ATOM     31 OG1  THR G   3      12.157  36.229  42.506  1.00 67.51 LIG-0.39  OA
ATOM     32 HG1  THR G   3      11.996  36.664  43.206  1.00 67.51 LIG 0.21  HD
ENDBRANCH 29 31
ENDBRANCH 1 29
BRANCH 1 33
ATOM     33  C   THR G   3      13.932  37.907  44.096  1.00 68.02 LIG 0.24  C 
ATOM     34  N   ALA G   4      12.726  38.320  44.482  1.00 68.86 LIG-0.35  N 
ATOM     35 H    ALA G   4      12.091  38.508  43.933  1.00 68.86 LIG 0.16  HD
ATOM     36 O    THR G   3      14.862  37.706  44.878  1.00 67.54 LIG-0.27  OA
BRANCH 34 37
ATOM     37  CA  ALA G   4      12.362  38.494  45.891  1.00 69.75 LIG 0.17  C 
ATOM     38  CB  ALA G   4      12.505  37.175  46.633  1.00 70.86 LIG 0.04  C 
BRANCH 37 39
ATOM     39  C   ALA G   4      13.183  39.587  46.586  1.00 71.43 LIG 0.24  C 
ATOM     40  N   ALA G   5      12.570  40.277  47.550  1.00 71.85 LIG-0.35  N 
ATOM     41 H    ALA G   5      11.740  40.177  47.751  1.00 71.85 LIG 0.16  HD
ATOM     42 O    ALA G   4      14.352  39.794  46.248  1.00 72.80 LIG-0.27  OA
BRANCH 40 43
ATOM     43  CA  ALA G   5      13.263  41.281  48.365  1.00 72.89 LIG 0.17  C 
ATOM     44  CB  ALA G   5      14.509  40.681  49.004  1.00 72.65 LIG 0.04  C 
BRANCH 43 45
ATOM     45  C   ALA G   5      13.630  42.528  47.553  1.00 72.87 LIG 0.24  C 
ATOM     46  N   THR G   6      13.388  42.485  46.240  1.00 71.86 LIG-0.34  N 
ATOM     47 H    THR G   6      13.058  41.801  45.838  1.00 71.86 LIG 0.16  HD
ATOM     48 O    ALA G   5      14.122  43.509  48.115  1.00 74.40 LIG-0.27  OA
BRANCH 46 49
ATOM     49  CA  THR G   6      13.671  43.626  45.352  1.00 72.17 LIG 0.20  C 
BRANCH 49 50
ATOM     50  CB  THR G   6      13.071  44.949  45.884  1.00 71.29 LIG 0.15  C 
ATOM     51  CG2 THR G   6      13.641  46.147  45.128  1.00 70.64 LIG 0.04  C 
BRANCH 50 52
ATOM     52 OG1  THR G   6      11.645  44.930  45.749  1.00 70.47 LIG-0.39  OA
ATOM     53 HG1  THR G   6      11.295  45.287  46.424  1.00 70.47 LIG 0.21  HD
ENDBRANCH 50 52
ENDBRANCH 49 50
BRANCH 49 54
ATOM     54  C   THR G   6      15.174  43.821  45.105  1.00 73.53 LIG 0.24  C 
ATOM     55  N   ALA G   7      15.995  43.533  46.119  1.00 73.25 LIG-0.35  N 
ATOM     56 H    ALA G   7      15.718  43.331  46.908  1.00 73.25 LIG 0.16  HD
ATOM     57 O    THR G   6      15.567  44.240  44.013  1.00 75.15 LIG-0.27  OA
BRANCH 55 58
ATOM     58  CA  ALA G   7      17.460  43.533  45.989  1.00 74.45 LIG 0.16  C 
ATOM     59  CB  ALA G   7      18.093  44.362  47.097  1.00 73.04 LIG 0.04  C 
BRANCH 58 60
ATOM     60  C   ALA G   7      18.004  42.105  46.024  1.00 76.13 LIG 0.22  C 
ATOM     61 O    ALA G   7      17.250  41.140  46.161  1.00 77.97 LIG-0.29  OA
ENDBRANCH 58 60
ENDBRANCH 55 58
ENDBRANCH 49 54
ENDBRANCH 46 49
ENDBRANCH 43 45
ENDBRANCH 40 43
ENDBRANCH 37 39
ENDBRANCH 34 37
ENDBRANCH 1 33
TORSDOF 22
ENDMDL
MODEL 42
USER: ADFR SOLUTION from run 70
USER: SCORE 15.003852 LL:  -3.784 LR: -14.838 RR:   0.000 FEB:  -8.275
USER: RMSD 2.811262
USER: SEED 69
USER: STATUS searching
USER: GENES 24
USER: genes 0 Translation |==|  0.33209 0.50231 0.44985
USER: genes 1 Rotation |==|  0.43458 0.55644 0.56534 0.98812
USER: genes 2 Torsion [CB]-CA--N-[C] |==|  0.27772
USER: genes 3 Torsion [N]-C--CA-[N] |==|  0.54390
USER: genes 4 Torsion [C]-CA--N-[C] |==|  0.76094
USER: genes 5 Torsion [N]-C--CA-[N] |==|  0.28468
USER: genes 6 Torsion [C]-CA--N-[H1] |==|  0.69306
USER: genes 7 Torsion [C]-CA--CB-[CG] |==|  0.50433
USER: genes 8 Torsion [CA]-CB--CG-[CD] |==|  0.92852
USER: genes 9 Torsion [CB]-CG--CD-[NE] |==|  0.39964
USER: genes 10 Torsion [CG]-CD--NE-[CZ] |==|  0.57826
USER: genes 11 Torsion [N]-CA--CB-[OG1] |==|  0.59274
USER: genes 12 Torsion [CA]-CB--OG1-[HG1] |==|  0.72547
USER: genes 13 Torsion [N]-CA--C-[N] |==|  0.45496
USER: genes 14 Torsion [C]-N--CA-[CB] |==|  0.51641
USER: genes 15 Torsion [N]-CA--C-[N] |==|  0.85839
USER: genes 16 Torsion [C]-N--CA-[CB] |==|  0.54677
USER: genes 17 Torsion [N]-CA--C-[N] |==|  0.41948
USER: genes 18 Torsion [C]-N--CA-[CB] |==|  0.86111
USER: genes 19 Torsion [N]-CA--CB-[CG2] |==|  0.54117
USER: genes 20 Torsion [CA]-CB--OG1-[HG1] |==|  0.79035
USER: genes 21 Torsion [N]-CA--C-[N] |==|  0.88701
USER: genes 22 Torsion [C]-N--CA-[C] |==|  0.77092
USER: genes 23 Torsion [N]-CA--C-[O] |==|  0.93165
ROOT
ATOM      1  CA  THR G   3      14.360  38.195  42.147  1.00 68.23 LIG 0.20  C 
ENDROOT
BRANCH 1 2
ATOM      2  N   THR G   3      15.773  38.167  41.784  1.00 68.42 LIG-0.34  N 
ATOM      3  C   ARG G   2      16.217  37.700  40.619  1.00 70.38 LIG 0.24  C 
ATOM      4 O    ARG G   2      15.494  37.149  39.781  1.00 69.46 LIG-0.27  OA
ATOM      5 H    THR G   3      16.293  38.479  42.394  1.00 68.42 LIG 0.16  HD
BRANCH 3 6
ATOM      6  CA  ARG G   2      17.714  37.857  40.374  1.00 72.62 LIG 0.18  C 
BRANCH 6 7
ATOM      7  N   ARG G   2      17.989  37.661  38.953  1.00 74.86 LIG-0.35  N 
ATOM      8  C   ALA G   1      18.192  36.454  38.431  1.00 76.29 LIG 0.25  C 
ATOM      9 O    ALA G   1      18.341  35.433  39.109  1.00 75.70 LIG-0.27  OA
ATOM     10 H    ARG G   2      18.007  38.389  38.494  1.00 74.86 LIG 0.16  HD
BRANCH 8 11
ATOM     11  CA  ALA G   1      18.246  36.385  36.913  1.00 78.97 LIG 0.27  C 
ATOM     12  CB  ALA G   1      17.419  35.205  36.418  1.00 79.33 LIG 0.05  C 
BRANCH 11 13
ATOM     13  N   ALA G   1      19.655  36.274  36.444  1.00 81.42 LIG-0.07  N 
ATOM     14 H3   ALA G   1      19.726  35.595  35.872  1.00 81.42 LIG 0.28  HD
ATOM     15 H2   ALA G   1      20.190  36.130  37.141  1.00 81.42 LIG 0.28  HD
ATOM     16 H1   ALA G   1      19.894  37.029  36.038  1.00 81.42 LIG 0.28  HD
ENDBRANCH 11 13
ENDBRANCH 8 11
ENDBRANCH 6 7
BRANCH 6 17
ATOM     17  CB  ARG G   2      18.202  39.232  40.840  1.00 73.45 LIG 0.04  C 
BRANCH 17 18
ATOM     18  CG  ARG G   2      19.682  39.459  40.586  1.00 75.79 LIG 0.02  C 
BRANCH 18 19
ATOM     19  CD  ARG G   2      20.466  38.157  40.527  1.00 77.52 LIG 0.14  C 
BRANCH 19 20
ATOM     20  NE  ARG G   2      21.538  38.225  39.531  1.00 80.25 LIG-0.23  N 
ATOM     21  CZ  ARG G   2      22.043  37.185  38.858  1.00 82.01 LIG 0.67  C 
ATOM     22  NH1 ARG G   2      21.591  35.943  39.048  1.00 81.47 LIG-0.23  N 
ATOM     23  NH2 ARG G   2      23.022  37.389  37.981  1.00 84.93 LIG-0.23  N 
ATOM     24 1HH1 ARG G   2      20.962  35.797  39.615  1.00 81.47 LIG 0.17  HD
ATOM     25 2HH1 ARG G   2      21.931  35.290  38.603  1.00 81.47 LIG 0.17  HD
ATOM     26 2HH2 ARG G   2      23.353  36.727  37.543  1.00 84.93 LIG 0.17  HD
ATOM     27 1HH2 ARG G   2      23.325  38.184  37.851  1.00 84.93 LIG 0.17  HD
ATOM     28 HE   ARG G   2      21.872  39.000  39.365  1.00 80.25 LIG 0.18  HD
ENDBRANCH 19 20
ENDBRANCH 18 19
ENDBRANCH 17 18
ENDBRANCH 6 17
ENDBRANCH 3 6
ENDBRANCH 1 2
BRANCH 1 29
ATOM     29  CB  THR G   3      13.978  37.016  43.073  1.00 68.23 LIG 0.15  C 
ATOM     30  CG2 THR G   3      14.104  37.414  44.532  1.00 68.63 LIG 0.04  C 
BRANCH 29 31
ATOM     31 OG1  THR G   3      12.634  36.595  42.807  1.00 67.51 LIG-0.39  OA
ATOM     32 HG1  THR G   3      12.117  36.933  43.376  1.00 67.51 LIG 0.21  HD
ENDBRANCH 29 31
ENDBRANCH 1 29
BRANCH 1 33
ATOM     33  C   THR G   3      14.019  39.510  42.841  1.00 68.02 LIG 0.24  C 
ATOM     34  N   ALA G   4      12.722  39.803  42.920  1.00 68.86 LIG-0.35  N 
ATOM     35 H    ALA G   4      12.105  39.321  42.565  1.00 68.86 LIG 0.16  HD
ATOM     36 O    THR G   3      14.907  40.238  43.288  1.00 67.54 LIG-0.27  OA
BRANCH 34 37
ATOM     37  CA  ALA G   4      12.220  40.986  43.625  1.00 69.75 LIG 0.17  C 
ATOM     38  CB  ALA G   4      10.701  40.965  43.661  1.00 70.86 LIG 0.04  C 
BRANCH 37 39
ATOM     39  C   ALA G   4      12.785  41.117  45.045  1.00 71.43 LIG 0.24  C 
ATOM     40  N   ALA G   5      12.692  40.041  45.829  1.00 71.85 LIG-0.35  N 
ATOM     41 H    ALA G   5      12.286  39.319  45.598  1.00 71.85 LIG 0.16  HD
ATOM     42 O    ALA G   4      13.296  42.178  45.413  1.00 72.80 LIG-0.27  OA
BRANCH 40 43
ATOM     43  CA  ALA G   5      13.278  39.992  47.173  1.00 72.89 LIG 0.17  C 
ATOM     44  CB  ALA G   5      13.382  38.551  47.657  1.00 72.65 LIG 0.04  C 
BRANCH 43 45
ATOM     45  C   ALA G   5      14.650  40.672  47.228  1.00 72.87 LIG 0.24  C 
ATOM     46  N   THR G   6      15.007  41.217  48.394  1.00 71.86 LIG-0.34  N 
ATOM     47 H    THR G   6      14.507  41.215  49.094  1.00 71.86 LIG 0.16  HD
ATOM     48 O    ALA G   5      15.367  40.699  46.226  1.00 74.40 LIG-0.27  OA
BRANCH 46 49
ATOM     49  CA  THR G   6      16.309  41.878  48.587  1.00 72.17 LIG 0.20  C 
BRANCH 49 50
ATOM     50  CB  THR G   6      17.490  41.005  48.102  1.00 71.29 LIG 0.15  C 
ATOM     51  CG2 THR G   6      18.817  41.539  48.637  1.00 70.64 LIG 0.04  C 
BRANCH 50 52
ATOM     52 OG1  THR G   6      17.309  39.652  48.535  1.00 70.47 LIG-0.39  OA
ATOM     53 HG1  THR G   6      17.483  39.593  49.354  1.00 70.47 LIG 0.21  HD
ENDBRANCH 50 52
ENDBRANCH 49 50
BRANCH 49 54
ATOM     54  C   THR G   6      16.382  43.247  47.895  1.00 73.53 LIG 0.24  C 
ATOM     55  N   ALA G   7      15.831  43.341  46.681  1.00 73.25 LIG-0.35  N 
ATOM     56 H    ALA G   7      15.522  42.663  46.249  1.00 73.25 LIG 0.16  HD
ATOM     57 O    THR G   6      16.943  44.190  48.457  1.00 75.15 LIG-0.27  OA
BRANCH 55 58
ATOM     58  CA  ALA G   7      15.695  44.613  45.958  1.00 74.45 LIG 0.16  C 
ATOM     59  CB  ALA G   7      15.623  44.368  44.457  1.00 73.04 LIG 0.04  C 
BRANCH 58 60
ATOM     60  C   ALA G   7      14.454  45.372  46.428  1.00 76.13 LIG 0.22  C 
ATOM     61 O    ALA G   7      13.499  44.778  46.931  1.00 77.97 LIG-0.29  OA
ENDBRANCH 58 60
ENDBRANCH 55 58
ENDBRANCH 49 54
ENDBRANCH 46 49
ENDBRANCH 43 45
ENDBRANCH 40 43
ENDBRANCH 37 39
ENDBRANCH 34 37
ENDBRANCH 1 33
TORSDOF 22
ENDMDL
MODEL 43
USER: ADFR SOLUTION from run 185
USER: SCORE 14.471607 LL:  -3.720 LR: -14.828 RR:   0.000 FEB:  -8.266
USER: RMSD 3.679140
USER: SEED 184
USER: STATUS no improvement in best in 3 clusters for 5 generations
USER: GENES 24
USER: genes 0 Translation |==|  0.32695 0.48031 0.44813
USER: genes 1 Rotation |==|  0.51904 0.55062 0.56658 0.99259
USER: genes 2 Torsion [CB]-CA--N-[C] |==|  0.24347
USER: genes 3 Torsion [N]-C--CA-[N] |==|  0.51287
USER: genes 4 Torsion [C]-CA--N-[C] |==|  0.75704
USER: genes 5 Torsion [N]-C--CA-[N] |==|  0.26973
USER: genes 6 Torsion [C]-CA--N-[H1] |==|  0.38361
USER: genes 7 Torsion [C]-CA--CB-[CG] |==|  0.60798
USER: genes 8 Torsion [CA]-CB--CG-[CD] |==|  0.60313
USER: genes 9 Torsion [CB]-CG--CD-[NE] |==|  0.45611
USER: genes 10 Torsion [CG]-CD--NE-[CZ] |==|  0.25899
USER: genes 11 Torsion [N]-CA--CB-[OG1] |==|  0.54028
USER: genes 12 Torsion [CA]-CB--OG1-[HG1] |==|  0.81706
USER: genes 13 Torsion [N]-CA--C-[N] |==|  0.38401
USER: genes 14 Torsion [C]-N--CA-[CB] |==|  0.55345
USER: genes 15 Torsion [N]-CA--C-[N] |==|  0.83174
USER: genes 16 Torsion [C]-N--CA-[CB] |==|  0.51111
USER: genes 17 Torsion [N]-CA--C-[N] |==|  0.38333
USER: genes 18 Torsion [C]-N--CA-[CB] |==|  0.51111
USER: genes 19 Torsion [N]-CA--CB-[CG2] |==|  0.59636
USER: genes 20 Torsion [CA]-CB--OG1-[HG1] |==|  0.22013
USER: genes 21 Torsion [N]-CA--C-[N] |==|  0.90555
USER: genes 22 Torsion [C]-N--CA-[C] |==|  0.70725
USER: genes 23 Torsion [N]-CA--C-[O] |==|  0.24869
ROOT
ATOM      1  CA  THR G   3      14.244  37.800  42.113  1.00 68.23 LIG 0.20  C 
ENDROOT
BRANCH 1 2
ATOM      2  N   THR G   3      15.650  37.852  41.724  1.00 68.42 LIG-0.34  N 
ATOM      3  C   ARG G   2      16.080  37.551  40.502  1.00 70.38 LIG 0.24  C 
ATOM      4 O    ARG G   2      15.354  37.095  39.611  1.00 69.46 LIG-0.27  OA
ATOM      5 H    THR G   3      16.175  38.096  42.361  1.00 68.42 LIG 0.16  HD
BRANCH 3 6
ATOM      6  CA  ARG G   2      17.568  37.775  40.253  1.00 72.62 LIG 0.18  C 
BRANCH 6 7
ATOM      7  N   ARG G   2      17.865  37.508  38.849  1.00 74.86 LIG-0.35  N 
ATOM      8  C   ALA G   1      18.164  36.288  38.407  1.00 76.29 LIG 0.25  C 
ATOM      9 O    ALA G   1      18.389  35.329  39.151  1.00 75.70 LIG-0.27  OA
ATOM     10 H    ARG G   2      17.828  38.202  38.343  1.00 74.86 LIG 0.16  HD
BRANCH 8 11
ATOM     11  CA  ALA G   1      18.230  36.124  36.897  1.00 78.97 LIG 0.27  C 
ATOM     12  CB  ALA G   1      17.617  34.788  36.494  1.00 79.33 LIG 0.05  C 
BRANCH 11 13
ATOM     13  N   ALA G   1      19.638  36.223  36.421  1.00 81.42 LIG-0.07  N 
ATOM     14 H3   ALA G   1      20.193  36.097  37.106  1.00 81.42 LIG 0.28  HD
ATOM     15 H2   ALA G   1      19.777  37.029  36.071  1.00 81.42 LIG 0.28  HD
ATOM     16 H1   ALA G   1      19.786  35.601  35.801  1.00 81.42 LIG 0.28  HD
ENDBRANCH 11 13
ENDBRANCH 8 11
ENDBRANCH 6 7
BRANCH 6 17
ATOM     17  CB  ARG G   2      17.978  39.200  40.637  1.00 73.45 LIG 0.04  C 
BRANCH 17 18
ATOM     18  CG  ARG G   2      18.985  39.811  39.678  1.00 75.79 LIG 0.02  C 
BRANCH 18 19
ATOM     19  CD  ARG G   2      20.012  40.677  40.392  1.00 77.52 LIG 0.14  C 
BRANCH 19 20
ATOM     20  NE  ARG G   2      21.169  40.948  39.535  1.00 80.25 LIG-0.23  N 
ATOM     21  CZ  ARG G   2      21.320  42.016  38.746  1.00 82.01 LIG 0.67  C 
ATOM     22  NH1 ARG G   2      20.386  42.967  38.669  1.00 81.47 LIG-0.23  N 
ATOM     23  NH2 ARG G   2      22.425  42.135  38.014  1.00 84.93 LIG-0.23  N 
ATOM     24 1HH1 ARG G   2      19.666  42.901  39.133  1.00 81.47 LIG 0.17  HD
ATOM     25 2HH1 ARG G   2      20.506  43.646  38.154  1.00 81.47 LIG 0.17  HD
ATOM     26 2HH2 ARG G   2      22.532  42.819  37.503  1.00 84.93 LIG 0.17  HD
ATOM     27 1HH2 ARG G   2      23.033  41.528  38.051  1.00 84.93 LIG 0.17  HD
ATOM     28 HE   ARG G   2      21.806  40.369  39.540  1.00 80.25 LIG 0.18  HD
ENDBRANCH 19 20
ENDBRANCH 18 19
ENDBRANCH 17 18
ENDBRANCH 6 17
ENDBRANCH 3 6
ENDBRANCH 1 2
BRANCH 1 29
ATOM     29  CB  THR G   3      13.834  36.392  42.606  1.00 68.23 LIG 0.15  C 
ATOM     30  CG2 THR G   3      14.410  36.114  43.982  1.00 68.63 LIG 0.04  C 
BRANCH 29 31
ATOM     31 OG1  THR G   3      12.405  36.283  42.655  1.00 67.51 LIG-0.39  OA
ATOM     32 HG1  THR G   3      12.105  36.804  43.241  1.00 67.51 LIG 0.21  HD
ENDBRANCH 29 31
ENDBRANCH 1 29
BRANCH 1 33
ATOM     33  C   THR G   3      13.960  38.819  43.210  1.00 68.02 LIG 0.24  C 
ATOM     34  N   ALA G   4      12.821  39.499  43.088  1.00 68.86 LIG-0.35  N 
ATOM     35 H    ALA G   4      12.291  39.419  42.415  1.00 68.86 LIG 0.16  HD
ATOM     36 O    THR G   3      14.753  38.986  44.139  1.00 67.54 LIG-0.27  OA
BRANCH 34 37
ATOM     37  CA  ALA G   4      12.358  40.456  44.097  1.00 69.75 LIG 0.17  C 
ATOM     38  CB  ALA G   4      10.868  40.704  43.936  1.00 70.86 LIG 0.04  C 
BRANCH 37 39
ATOM     39  C   ALA G   4      12.672  40.008  45.530  1.00 71.43 LIG 0.24  C 
ATOM     40  N   ALA G   5      12.131  38.855  45.930  1.00 71.85 LIG-0.35  N 
ATOM     41 H    ALA G   5      11.583  38.397  45.452  1.00 71.85 LIG 0.16  HD
ATOM     42 O    ALA G   4      13.394  40.702  46.252  1.00 72.80 LIG-0.27  OA
BRANCH 40 43
ATOM     43  CA  ALA G   5      12.427  38.258  47.237  1.00 72.89 LIG 0.17  C 
ATOM     44  CB  ALA G   5      11.744  36.903  47.370  1.00 72.65 LIG 0.04  C 
BRANCH 43 45
ATOM     45  C   ALA G   5      13.933  38.121  47.481  1.00 72.87 LIG 0.24  C 
ATOM     46  N   THR G   6      14.378  38.436  48.700  1.00 71.86 LIG-0.34  N 
ATOM     47 H    THR G   6      13.871  38.719  49.334  1.00 71.86 LIG 0.16  HD
ATOM     48 O    ALA G   5      14.674  37.735  46.573  1.00 74.40 LIG-0.27  OA
BRANCH 46 49
ATOM     49  CA  THR G   6      15.800  38.324  49.071  1.00 72.17 LIG 0.20  C 
BRANCH 49 50
ATOM     50  CB  THR G   6      16.047  38.652  50.562  1.00 71.29 LIG 0.15  C 
ATOM     51  CG2 THR G   6      17.392  39.349  50.750  1.00 70.64 LIG 0.04  C 
BRANCH 50 52
ATOM     52 OG1  THR G   6      14.998  39.490  51.060  1.00 70.47 LIG-0.39  OA
ATOM     53 HG1  THR G   6      14.321  39.022  51.230  1.00 70.47 LIG 0.21  HD
ENDBRANCH 50 52
ENDBRANCH 49 50
BRANCH 49 54
ATOM     54  C   THR G   6      16.381  36.937  48.760  1.00 73.53 LIG 0.24  C 
ATOM     55  N   ALA G   7      15.558  35.893  48.893  1.00 73.25 LIG-0.35  N 
ATOM     56 H    ALA G   7      14.764  35.957  49.219  1.00 73.25 LIG 0.16  HD
ATOM     57 O    THR G   6      17.561  36.828  48.420  1.00 75.15 LIG-0.27  OA
BRANCH 55 58
ATOM     58  CA  ALA G   7      15.925  34.526  48.496  1.00 74.45 LIG 0.16  C 
ATOM     59  CB  ALA G   7      15.578  33.539  49.602  1.00 73.04 LIG 0.04  C 
BRANCH 58 60
ATOM     60  C   ALA G   7      15.219  34.133  47.199  1.00 76.13 LIG 0.22  C 
ATOM     61 O    ALA G   7      15.734  34.357  46.102  1.00 77.97 LIG-0.29  OA
ENDBRANCH 58 60
ENDBRANCH 55 58
ENDBRANCH 49 54
ENDBRANCH 46 49
ENDBRANCH 43 45
ENDBRANCH 40 43
ENDBRANCH 37 39
ENDBRANCH 34 37
ENDBRANCH 1 33
TORSDOF 22
ENDMDL
MODEL 44
USER: ADFR SOLUTION from run 81
USER: SCORE 15.321914 LL:  -3.818 LR: -14.825 RR:   0.000 FEB:  -8.263
USER: RMSD 3.709344
USER: SEED 80
USER: STATUS no improvement in best in 11 clusters for 5 generations
USER: GENES 24
USER: genes 0 Translation |==|  0.32505 0.50658 0.45951
USER: genes 1 Rotation |==|  0.43875 0.53698 0.57409 0.98928
USER: genes 2 Torsion [CB]-CA--N-[C] |==|  0.28068
USER: genes 3 Torsion [N]-C--CA-[N] |==|  0.52566
USER: genes 4 Torsion [C]-CA--N-[C] |==|  0.76409
USER: genes 5 Torsion [N]-C--CA-[N] |==|  0.25581
USER: genes 6 Torsion [C]-CA--N-[H1] |==|  0.51601
USER: genes 7 Torsion [C]-CA--CB-[CG] |==|  0.52619
USER: genes 8 Torsion [CA]-CB--CG-[CD] |==|  0.34808
USER: genes 9 Torsion [CB]-CG--CD-[NE] |==|  0.55550
USER: genes 10 Torsion [CG]-CD--NE-[CZ] |==|  0.51748
USER: genes 11 Torsion [N]-CA--CB-[OG1] |==|  0.60709
USER: genes 12 Torsion [CA]-CB--OG1-[HG1] |==|  0.66512
USER: genes 13 Torsion [N]-CA--C-[N] |==|  0.45959
USER: genes 14 Torsion [C]-N--CA-[CB] |==|  0.54240
USER: genes 15 Torsion [N]-CA--C-[N] |==|  0.45492
USER: genes 16 Torsion [C]-N--CA-[CB] |==|  0.89407
USER: genes 17 Torsion [N]-CA--C-[N] |==|  0.85459
USER: genes 18 Torsion [C]-N--CA-[CB] |==|  0.52010
USER: genes 19 Torsion [N]-CA--CB-[CG2] |==|  0.61158
USER: genes 20 Torsion [CA]-CB--OG1-[HG1] |==|  0.22908
USER: genes 21 Torsion [N]-CA--C-[N] |==|  0.88095
USER: genes 22 Torsion [C]-N--CA-[C] |==|  0.70070
USER: genes 23 Torsion [N]-CA--C-[O] |==|  0.96122
ROOT
ATOM      1  CA  THR G   3      14.202  38.272  42.343  1.00 68.23 LIG 0.20  C 
ENDROOT
BRANCH 1 2
ATOM      2  N   THR G   3      15.637  38.313  42.079  1.00 68.42 LIG-0.34  N 
ATOM      3  C   ARG G   2      16.177  37.922  40.927  1.00 70.38 LIG 0.24  C 
ATOM      4 O    ARG G   2      15.536  37.389  40.015  1.00 69.46 LIG-0.27  OA
ATOM      5 H    THR G   3      16.100  38.613  42.738  1.00 68.42 LIG 0.16  HD
BRANCH 3 6
ATOM      6  CA  ARG G   2      17.680  38.146  40.796  1.00 72.62 LIG 0.18  C 
BRANCH 6 7
ATOM      7  N   ARG G   2      18.085  37.878  39.419  1.00 74.86 LIG-0.35  N 
ATOM      8  C   ALA G   1      18.370  36.651  38.990  1.00 76.29 LIG 0.25  C 
ATOM      9 O    ALA G   1      18.489  35.676  39.739  1.00 75.70 LIG-0.27  OA
ATOM     10 H    ARG G   2      18.121  38.578  38.920  1.00 74.86 LIG 0.16  HD
BRANCH 8 11
ATOM     11  CA  ALA G   1      18.560  36.497  37.489  1.00 78.97 LIG 0.27  C 
ATOM     12  CB  ALA G   1      18.039  35.137  37.038  1.00 79.33 LIG 0.05  C 
BRANCH 11 13
ATOM     13  N   ALA G   1      19.994  36.659  37.123  1.00 81.42 LIG-0.07  N 
ATOM     14 H3   ALA G   1      20.468  35.991  37.473  1.00 81.42 LIG 0.28  HD
ATOM     15 H2   ALA G   1      20.295  37.434  37.441  1.00 81.42 LIG 0.28  HD
ATOM     16 H1   ALA G   1      20.078  36.650  36.237  1.00 81.42 LIG 0.28  HD
ENDBRANCH 11 13
ENDBRANCH 8 11
ENDBRANCH 6 7
BRANCH 6 17
ATOM     17  CB  ARG G   2      18.058  39.571  41.210  1.00 73.45 LIG 0.04  C 
BRANCH 17 18
ATOM     18  CG  ARG G   2      19.500  39.925  40.887  1.00 75.79 LIG 0.02  C 
BRANCH 18 19
ATOM     19  CD  ARG G   2      19.612  41.187  40.046  1.00 77.52 LIG 0.14  C 
BRANCH 19 20
ATOM     20  NE  ARG G   2      20.905  41.257  39.360  1.00 80.25 LIG-0.23  N 
ATOM     21  CZ  ARG G   2      21.351  42.295  38.645  1.00 82.01 LIG 0.67  C 
ATOM     22  NH1 ARG G   2      20.622  43.402  38.488  1.00 81.47 LIG-0.23  N 
ATOM     23  NH2 ARG G   2      22.548  42.223  38.069  1.00 84.93 LIG-0.23  N 
ATOM     24 1HH1 ARG G   2      19.845  43.460  38.852  1.00 81.47 LIG 0.17  HD
ATOM     25 2HH1 ARG G   2      20.930  44.058  38.024  1.00 81.47 LIG 0.17  HD
ATOM     26 2HH2 ARG G   2      22.844  42.886  37.607  1.00 84.93 LIG 0.17  HD
ATOM     27 1HH2 ARG G   2      23.027  41.514  38.159  1.00 84.93 LIG 0.17  HD
ATOM     28 HE   ARG G   2      21.421  40.572  39.423  1.00 80.25 LIG 0.18  HD
ENDBRANCH 19 20
ENDBRANCH 18 19
ENDBRANCH 17 18
ENDBRANCH 6 17
ENDBRANCH 3 6
ENDBRANCH 1 2
BRANCH 1 29
ATOM     29  CB  THR G   3      13.808  37.049  43.204  1.00 68.23 LIG 0.15  C 
ATOM     30  CG2 THR G   3      13.692  37.435  44.667  1.00 68.63 LIG 0.04  C 
BRANCH 29 31
ATOM     31 OG1  THR G   3      12.559  36.509  42.752  1.00 67.51 LIG-0.39  OA
ATOM     32 HG1  THR G   3      12.001  36.530  43.380  1.00 67.51 LIG 0.21  HD
ENDBRANCH 29 31
ENDBRANCH 1 29
BRANCH 1 33
ATOM     33  C   THR G   3      13.757  39.549  43.049  1.00 68.02 LIG 0.24  C 
ATOM     34  N   ALA G   4      12.444  39.769  43.076  1.00 68.86 LIG-0.35  N 
ATOM     35 H    ALA G   4      11.871  39.262  42.682  1.00 68.86 LIG 0.16  HD
ATOM     36 O    THR G   3      14.583  40.313  43.553  1.00 67.54 LIG-0.27  OA
BRANCH 34 37
ATOM     37  CA  ALA G   4      11.846  40.904  43.783  1.00 69.75 LIG 0.17  C 
ATOM     38  CB  ALA G   4      10.351  40.685  43.951  1.00 70.86 LIG 0.04  C 
BRANCH 37 39
ATOM     39  C   ALA G   4      12.501  41.170  45.144  1.00 71.43 LIG 0.24  C 
ATOM     40  N   ALA G   5      12.264  42.358  45.703  1.00 71.85 LIG-0.35  N 
ATOM     41 H    ALA G   5      11.820  42.985  45.316  1.00 71.85 LIG 0.16  HD
ATOM     42 O    ALA G   4      13.208  40.305  45.671  1.00 72.80 LIG-0.27  OA
BRANCH 40 43
ATOM     43  CA  ALA G   5      12.743  42.708  47.045  1.00 72.89 LIG 0.17  C 
ATOM     44  CB  ALA G   5      12.642  41.508  47.977  1.00 72.65 LIG 0.04  C 
BRANCH 43 45
ATOM     45  C   ALA G   5      14.179  43.245  47.021  1.00 72.87 LIG 0.24  C 
ATOM     46  N   THR G   6      15.093  42.494  46.400  1.00 71.86 LIG-0.34  N 
ATOM     47 H    THR G   6      14.918  41.736  46.035  1.00 71.86 LIG 0.16  HD
ATOM     48 O    ALA G   5      14.445  44.322  47.559  1.00 74.40 LIG-0.27  OA
BRANCH 46 49
ATOM     49  CA  THR G   6      16.502  42.908  46.285  1.00 72.17 LIG 0.20  C 
BRANCH 49 50
ATOM     50  CB  THR G   6      17.320  41.963  45.374  1.00 71.29 LIG 0.15  C 
ATOM     51  CG2 THR G   6      18.710  41.717  45.955  1.00 70.64 LIG 0.04  C 
BRANCH 50 52
ATOM     52 OG1  THR G   6      16.636  40.714  45.222  1.00 70.47 LIG-0.39  OA
ATOM     53 HG1  THR G   6      16.050  40.786  44.624  1.00 70.47 LIG 0.21  HD
ENDBRANCH 50 52
ENDBRANCH 49 50
BRANCH 49 54
ATOM     54  C   THR G   6      16.652  44.349  45.776  1.00 73.53 LIG 0.24  C 
ATOM     55  N   ALA G   7      15.859  44.719  44.766  1.00 73.25 LIG-0.35  N 
ATOM     56 H    ALA G   7      15.344  44.172  44.346  1.00 73.25 LIG 0.16  HD
ATOM     57 O    THR G   6      17.486  45.098  46.290  1.00 75.15 LIG-0.27  OA
BRANCH 55 58
ATOM     58  CA  ALA G   7      15.786  46.100  44.268  1.00 74.45 LIG 0.16  C 
ATOM     59  CB  ALA G   7      15.944  46.130  42.754  1.00 73.04 LIG 0.04  C 
BRANCH 58 60
ATOM     60  C   ALA G   7      14.462  46.750  44.672  1.00 76.13 LIG 0.22  C 
ATOM     61 O    ALA G   7      13.526  46.072  45.097  1.00 77.97 LIG-0.29  OA
ENDBRANCH 58 60
ENDBRANCH 55 58
ENDBRANCH 49 54
ENDBRANCH 46 49
ENDBRANCH 43 45
ENDBRANCH 40 43
ENDBRANCH 37 39
ENDBRANCH 34 37
ENDBRANCH 1 33
TORSDOF 22
ENDMDL
MODEL 45
USER: ADFR SOLUTION from run 26
USER: SCORE 15.704537 LL:  -2.885 LR: -14.818 RR:   0.000 FEB:  -8.255
USER: RMSD 4.262072
USER: SEED 25
USER: STATUS no improvement in best in 13 clusters for 5 generations
USER: GENES 24
USER: genes 0 Translation |==|  0.33492 0.41140 0.40741
USER: genes 1 Rotation |==|  0.46665 0.56302 0.41456 0.98746
USER: genes 2 Torsion [CB]-CA--N-[C] |==|  0.49444
USER: genes 3 Torsion [N]-C--CA-[N] |==|  0.41368
USER: genes 4 Torsion [C]-CA--N-[C] |==|  0.82204
USER: genes 5 Torsion [N]-C--CA-[N] |==|  0.98100
USER: genes 6 Torsion [C]-CA--N-[H1] |==|  0.43416
USER: genes 7 Torsion [C]-CA--CB-[CG] |==|  0.59242
USER: genes 8 Torsion [CA]-CB--CG-[CD] |==|  0.28281
USER: genes 9 Torsion [CB]-CG--CD-[NE] |==|  0.62410
USER: genes 10 Torsion [CG]-CD--NE-[CZ] |==|  0.50971
USER: genes 11 Torsion [N]-CA--CB-[OG1] |==|  0.45523
USER: genes 12 Torsion [CA]-CB--OG1-[HG1] |==|  0.47728
USER: genes 13 Torsion [N]-CA--C-[N] |==|  0.41379
USER: genes 14 Torsion [C]-N--CA-[CB] |==|  0.51379
USER: genes 15 Torsion [N]-CA--C-[N] |==|  0.31994
USER: genes 16 Torsion [C]-N--CA-[CB] |==|  0.53071
USER: genes 17 Torsion [N]-CA--C-[N] |==|  0.31188
USER: genes 18 Torsion [C]-N--CA-[CB] |==|  0.86111
USER: genes 19 Torsion [N]-CA--CB-[CG2] |==|  0.36245
USER: genes 20 Torsion [CA]-CB--OG1-[HG1] |==|  0.51025
USER: genes 21 Torsion [N]-CA--C-[N] |==|  0.89746
USER: genes 22 Torsion [C]-N--CA-[C] |==|  0.65807
USER: genes 23 Torsion [N]-CA--C-[O] |==|  0.28271
ROOT
ATOM      1  CA  THR G   3      14.424  36.559  41.288  1.00 68.23 LIG 0.20  C 
ENDROOT
BRANCH 1 2
ATOM      2  N   THR G   3      15.578  35.733  40.949  1.00 68.42 LIG-0.34  N 
ATOM      3  C   ARG G   2      16.587  36.164  40.197  1.00 70.38 LIG 0.24  C 
ATOM      4 O    ARG G   2      16.598  37.260  39.625  1.00 69.46 LIG-0.27  OA
ATOM      5 H    THR G   3      15.544  34.940  41.281  1.00 68.42 LIG 0.16  HD
BRANCH 3 6
ATOM      6  CA  ARG G   2      17.757  35.197  40.046  1.00 72.62 LIG 0.18  C 
BRANCH 6 7
ATOM      7  N   ARG G   2      18.376  35.394  38.739  1.00 74.86 LIG-0.35  N 
ATOM      8  C   ALA G   1      17.725  35.152  37.603  1.00 76.29 LIG 0.25  C 
ATOM      9 O    ALA G   1      16.629  34.584  37.551  1.00 75.70 LIG-0.27  OA
ATOM     10 H    ARG G   2      19.187  35.676  38.772  1.00 74.86 LIG 0.16  HD
BRANCH 8 11
ATOM     11  CA  ALA G   1      18.416  35.610  36.328  1.00 78.97 LIG 0.27  C 
ATOM     12  CB  ALA G   1      18.765  34.403  35.466  1.00 79.33 LIG 0.05  C 
BRANCH 11 13
ATOM     13  N   ALA G   1      19.637  36.399  36.650  1.00 81.42 LIG-0.07  N 
ATOM     14 H3   ALA G   1      20.032  36.056  37.371  1.00 81.42 LIG 0.28  HD
ATOM     15 H2   ALA G   1      19.411  37.245  36.810  1.00 81.42 LIG 0.28  HD
ATOM     16 H1   ALA G   1      20.201  36.368  35.961  1.00 81.42 LIG 0.28  HD
ENDBRANCH 11 13
ENDBRANCH 8 11
ENDBRANCH 6 7
BRANCH 6 17
ATOM     17  CB  ARG G   2      18.778  35.396  41.170  1.00 73.45 LIG 0.04  C 
BRANCH 17 18
ATOM     18  CG  ARG G   2      20.209  35.138  40.730  1.00 75.79 LIG 0.02  C 
BRANCH 18 19
ATOM     19  CD  ARG G   2      20.977  36.426  40.475  1.00 77.52 LIG 0.14  C 
BRANCH 19 20
ATOM     20  NE  ARG G   2      21.749  36.348  39.232  1.00 80.25 LIG-0.23  N 
ATOM     21  CZ  ARG G   2      22.576  37.291  38.769  1.00 82.01 LIG 0.67  C 
ATOM     22  NH1 ARG G   2      22.774  38.434  39.430  1.00 81.47 LIG-0.23  N 
ATOM     23  NH2 ARG G   2      23.214  37.092  37.619  1.00 84.93 LIG-0.23  N 
ATOM     24 1HH1 ARG G   2      22.365  38.578  40.173  1.00 81.47 LIG 0.17  HD
ATOM     25 2HH1 ARG G   2      23.312  39.027  39.113  1.00 81.47 LIG 0.17  HD
ATOM     26 2HH2 ARG G   2      23.749  37.693  37.313  1.00 84.93 LIG 0.17  HD
ATOM     27 1HH2 ARG G   2      23.093  36.362  37.180  1.00 84.93 LIG 0.17  HD
ATOM     28 HE   ARG G   2      21.663  35.635  38.759  1.00 80.25 LIG 0.18  HD
ENDBRANCH 19 20
ENDBRANCH 18 19
ENDBRANCH 17 18
ENDBRANCH 6 17
ENDBRANCH 3 6
ENDBRANCH 1 2
BRANCH 1 29
ATOM     29  CB  THR G   3      13.385  35.783  42.132  1.00 68.23 LIG 0.15  C 
ATOM     30  CG2 THR G   3      14.072  34.949  43.198  1.00 68.63 LIG 0.04  C 
BRANCH 29 31
ATOM     31 OG1  THR G   3      12.472  36.696  42.754  1.00 67.51 LIG-0.39  OA
ATOM     32 HG1  THR G   3      11.849  36.265  43.116  1.00 67.51 LIG 0.21  HD
ENDBRANCH 29 31
ENDBRANCH 1 29
BRANCH 1 33
ATOM     33  C   THR G   3      14.868  37.800  42.055  1.00 68.02 LIG 0.24  C 
ATOM     34  N   ALA G   4      14.123  38.889  41.876  1.00 68.86 LIG-0.35  N 
ATOM     35 H    ALA G   4      13.460  38.925  41.330  1.00 68.86 LIG 0.16  HD
ATOM     36 O    THR G   3      15.861  37.770  42.785  1.00 67.54 LIG-0.27  OA
BRANCH 34 37
ATOM     37  CA  ALA G   4      14.364  40.140  42.600  1.00 69.75 LIG 0.17  C 
ATOM     38  CB  ALA G   4      13.278  41.151  42.270  1.00 70.86 LIG 0.04  C 
BRANCH 37 39
ATOM     39  C   ALA G   4      14.461  39.940  44.118  1.00 71.43 LIG 0.24  C 
ATOM     40  N   ALA G   5      15.640  40.206  44.684  1.00 71.85 LIG-0.35  N 
ATOM     41 H    ALA G   5      16.343  40.421  44.238  1.00 71.85 LIG 0.16  HD
ATOM     42 O    ALA G   4      13.478  39.553  44.756  1.00 72.80 LIG-0.27  OA
BRANCH 40 43
ATOM     43  CA  ALA G   5      15.848  40.155  46.135  1.00 72.89 LIG 0.17  C 
ATOM     44  CB  ALA G   5      17.195  40.762  46.503  1.00 72.65 LIG 0.04  C 
BRANCH 43 45
ATOM     45  C   ALA G   5      14.721  40.855  46.903  1.00 72.87 LIG 0.24  C 
ATOM     46  N   THR G   6      13.923  40.080  47.642  1.00 71.86 LIG-0.34  N 
ATOM     47 H    THR G   6      14.002  39.225  47.693  1.00 71.86 LIG 0.16  HD
ATOM     48 O    ALA G   5      14.585  42.077  46.822  1.00 74.40 LIG-0.27  OA
BRANCH 46 49
ATOM     49  CA  THR G   6      12.819  40.631  48.448  1.00 72.17 LIG 0.20  C 
BRANCH 49 50
ATOM     50  CB  THR G   6      13.273  41.812  49.338  1.00 71.29 LIG 0.15  C 
ATOM     51  CG2 THR G   6      12.333  43.004  49.179  1.00 70.64 LIG 0.04  C 
BRANCH 50 52
ATOM     52 OG1  THR G   6      13.305  41.406  50.711  1.00 70.47 LIG-0.39  OA
ATOM     53 HG1  THR G   6      13.503  42.065  51.194  1.00 70.47 LIG 0.21  HD
ENDBRANCH 50 52
ENDBRANCH 49 50
BRANCH 49 54
ATOM     54  C   THR G   6      11.630  41.080  47.587  1.00 73.53 LIG 0.24  C 
ATOM     55  N   ALA G   7      11.915  41.641  46.407  1.00 73.25 LIG-0.35  N 
ATOM     56 H    ALA G   7      12.716  41.832  46.157  1.00 73.25 LIG 0.16  HD
ATOM     57 O    THR G   6      10.479  40.929  48.002  1.00 75.15 LIG-0.27  OA
BRANCH 55 58
ATOM     58  CA  ALA G   7      10.888  41.989  45.415  1.00 74.45 LIG 0.16  C 
ATOM     59  CB  ALA G   7      10.823  43.498  45.223  1.00 73.04 LIG 0.04  C 
BRANCH 58 60
ATOM     60  C   ALA G   7      11.171  41.300  44.080  1.00 76.13 LIG 0.22  C 
ATOM     61 O    ALA G   7      10.548  40.293  43.741  1.00 77.97 LIG-0.29  OA
ENDBRANCH 58 60
ENDBRANCH 55 58
ENDBRANCH 49 54
ENDBRANCH 46 49
ENDBRANCH 43 45
ENDBRANCH 40 43
ENDBRANCH 37 39
ENDBRANCH 34 37
ENDBRANCH 1 33
TORSDOF 22
ENDMDL
MODEL 46
USER: ADFR SOLUTION from run 113
USER: SCORE 15.067666 LL:  -3.429 LR: -14.799 RR:   0.000 FEB:  -8.236
USER: RMSD 5.286241
USER: SEED 112
USER: STATUS no improvement in best in 15 clusters for 5 generations
USER: GENES 24
USER: genes 0 Translation |==|  0.33297 0.44474 0.47398
USER: genes 1 Rotation |==|  0.62948 0.55053 0.58714 0.97232
USER: genes 2 Torsion [CB]-CA--N-[C] |==|  0.22352
USER: genes 3 Torsion [N]-C--CA-[N] |==|  0.46514
USER: genes 4 Torsion [C]-CA--N-[C] |==|  0.75689
USER: genes 5 Torsion [N]-C--CA-[N] |==|  0.30091
USER: genes 6 Torsion [C]-CA--N-[H1] |==|  0.85571
USER: genes 7 Torsion [C]-CA--CB-[CG] |==|  0.51165
USER: genes 8 Torsion [CA]-CB--CG-[CD] |==|  0.29362
USER: genes 9 Torsion [CB]-CG--CD-[NE] |==|  0.55146
USER: genes 10 Torsion [CG]-CD--NE-[CZ] |==|  0.59908
USER: genes 11 Torsion [N]-CA--CB-[OG1] |==|  0.96351
USER: genes 12 Torsion [CA]-CB--OG1-[HG1] |==|  0.95899
USER: genes 13 Torsion [N]-CA--C-[N] |==|  0.47254
USER: genes 14 Torsion [C]-N--CA-[CB] |==|  0.79614
USER: genes 15 Torsion [N]-CA--C-[N] |==|  0.09830
USER: genes 16 Torsion [C]-N--CA-[CB] |==|  0.46681
USER: genes 17 Torsion [N]-CA--C-[N] |==|  0.48331
USER: genes 18 Torsion [C]-N--CA-[CB] |==|  0.56721
USER: genes 19 Torsion [N]-CA--CB-[CG2] |==|  0.73920
USER: genes 20 Torsion [CA]-CB--OG1-[HG1] |==|  0.79470
USER: genes 21 Torsion [N]-CA--C-[N] |==|  0.85728
USER: genes 22 Torsion [C]-N--CA-[C] |==|  0.68926
USER: genes 23 Torsion [N]-CA--C-[O] |==|  0.00186
ROOT
ATOM      1  CA  THR G   3      14.380  37.159  42.636  1.00 68.23 LIG 0.20  C 
ENDROOT
BRANCH 1 2
ATOM      2  N   THR G   3      15.751  37.459  42.238  1.00 68.42 LIG-0.34  N 
ATOM      3  C   ARG G   2      16.126  37.608  40.970  1.00 70.38 LIG 0.24  C 
ATOM      4 O    ARG G   2      15.381  37.401  40.005  1.00 69.46 LIG-0.27  OA
ATOM      5 H    THR G   3      16.295  37.531  42.901  1.00 68.42 LIG 0.16  HD
BRANCH 3 6
ATOM      6  CA  ARG G   2      17.576  38.032  40.757  1.00 72.62 LIG 0.18  C 
BRANCH 6 7
ATOM      7  N   ARG G   2      17.921  37.865  39.348  1.00 74.86 LIG-0.35  N 
ATOM      8  C   ALA G   1      18.382  36.714  38.863  1.00 76.29 LIG 0.25  C 
ATOM      9 O    ALA G   1      18.721  35.761  39.572  1.00 75.70 LIG-0.27  OA
ATOM     10 H    ARG G   2      17.801  38.569  38.870  1.00 74.86 LIG 0.16  HD
BRANCH 8 11
ATOM     11  CA  ALA G   1      18.488  36.624  37.349  1.00 78.97 LIG 0.27  C 
ATOM     12  CB  ALA G   1      17.804  35.353  36.857  1.00 79.33 LIG 0.05  C 
BRANCH 11 13
ATOM     13  N   ALA G   1      19.914  36.654  36.921  1.00 81.42 LIG-0.07  N 
ATOM     14 H3   ALA G   1      19.957  36.718  36.034  1.00 81.42 LIG 0.28  HD
ATOM     15 H2   ALA G   1      20.318  35.906  37.184  1.00 81.42 LIG 0.28  HD
ATOM     16 H1   ALA G   1      20.319  37.356  37.289  1.00 81.42 LIG 0.28  HD
ENDBRANCH 11 13
ENDBRANCH 8 11
ENDBRANCH 6 7
BRANCH 6 17
ATOM     17  CB  ARG G   2      17.793  39.480  41.205  1.00 73.45 LIG 0.04  C 
BRANCH 17 18
ATOM     18  CG  ARG G   2      19.196  39.990  40.923  1.00 75.79 LIG 0.02  C 
BRANCH 18 19
ATOM     19  CD  ARG G   2      19.235  40.957  39.750  1.00 77.52 LIG 0.14  C 
BRANCH 19 20
ATOM     20  NE  ARG G   2      20.594  41.095  39.218  1.00 80.25 LIG-0.23  N 
ATOM     21  CZ  ARG G   2      21.128  42.219  38.730  1.00 82.01 LIG 0.67  C 
ATOM     22  NH1 ARG G   2      20.436  43.360  38.682  1.00 81.47 LIG-0.23  N 
ATOM     23  NH2 ARG G   2      22.378  42.202  38.274  1.00 84.93 LIG-0.23  N 
ATOM     24 1HH1 ARG G   2      19.626  43.384  38.969  1.00 81.47 LIG 0.17  HD
ATOM     25 2HH1 ARG G   2      20.801  44.071  38.363  1.00 81.47 LIG 0.17  HD
ATOM     26 2HH2 ARG G   2      22.730  42.920  37.958  1.00 84.93 LIG 0.17  HD
ATOM     27 1HH2 ARG G   2      22.834  41.473  38.295  1.00 84.93 LIG 0.17  HD
ATOM     28 HE   ARG G   2      21.090  40.392  39.221  1.00 80.25 LIG 0.18  HD
ENDBRANCH 19 20
ENDBRANCH 18 19
ENDBRANCH 17 18
ENDBRANCH 6 17
ENDBRANCH 3 6
ENDBRANCH 1 2
BRANCH 1 29
ATOM     29  CB  THR G   3      14.051  35.655  42.485  1.00 68.23 LIG 0.15  C 
ATOM     30  CG2 THR G   3      12.704  35.463  41.813  1.00 68.63 LIG 0.04  C 
BRANCH 29 31
ATOM     31 OG1  THR G   3      15.067  35.003  41.714  1.00 67.51 LIG-0.39  OA
ATOM     32 HG1  THR G   3      15.536  35.580  41.323  1.00 67.51 LIG 0.21  HD
ENDBRANCH 29 31
ENDBRANCH 1 29
BRANCH 1 33
ATOM     33  C   THR G   3      14.143  37.583  44.082  1.00 68.02 LIG 0.24  C 
ATOM     34  N   ALA G   4      12.878  37.550  44.495  1.00 68.86 LIG-0.35  N 
ATOM     35 H    ALA G   4      12.217  37.353  43.982  1.00 68.86 LIG 0.16  HD
ATOM     36 O    THR G   3      15.082  37.934  44.799  1.00 67.54 LIG-0.27  OA
BRANCH 34 37
ATOM     37  CA  ALA G   4      12.488  37.848  45.876  1.00 69.75 LIG 0.17  C 
ATOM     38  CB  ALA G   4      12.882  36.698  46.789  1.00 70.86 LIG 0.04  C 
BRANCH 37 39
ATOM     39  C   ALA G   4      13.084  39.164  46.391  1.00 71.43 LIG 0.24  C 
ATOM     40  N   ALA G   5      13.202  40.157  45.507  1.00 71.85 LIG-0.35  N 
ATOM     41 H    ALA G   5      13.019  40.072  44.671  1.00 71.85 LIG 0.16  HD
ATOM     42 O    ALA G   4      13.427  39.269  47.573  1.00 72.80 LIG-0.27  OA
BRANCH 40 43
ATOM     43  CA  ALA G   5      13.662  41.498  45.883  1.00 72.89 LIG 0.17  C 
ATOM     44  CB  ALA G   5      13.975  42.322  44.641  1.00 72.65 LIG 0.04  C 
BRANCH 43 45
ATOM     45  C   ALA G   5      12.643  42.230  46.764  1.00 72.87 LIG 0.24  C 
ATOM     46  N   THR G   6      13.016  43.411  47.264  1.00 71.86 LIG-0.34  N 
ATOM     47 H    THR G   6      13.788  43.763  47.129  1.00 71.86 LIG 0.16  HD
ATOM     48 O    ALA G   5      11.539  41.726  46.980  1.00 74.40 LIG-0.27  OA
BRANCH 46 49
ATOM     49  CA  THR G   6      12.121  44.226  48.104  1.00 72.17 LIG 0.20  C 
BRANCH 49 50
ATOM     50  CB  THR G   6      12.488  45.728  48.069  1.00 71.29 LIG 0.15  C 
ATOM     51  CG2 THR G   6      13.415  46.088  49.228  1.00 70.64 LIG 0.04  C 
BRANCH 50 52
ATOM     52 OG1  THR G   6      13.126  46.049  46.827  1.00 70.47 LIG-0.39  OA
ATOM     53 HG1  THR G   6      13.909  45.744  46.827  1.00 70.47 LIG 0.21  HD
ENDBRANCH 50 52
ENDBRANCH 49 50
BRANCH 49 54
ATOM     54  C   THR G   6      10.643  44.063  47.720  1.00 73.53 LIG 0.24  C 
ATOM     55  N   ALA G   7      10.332  44.226  46.430  1.00 73.25 LIG-0.35  N 
ATOM     56 H    ALA G   7      10.897  44.495  45.839  1.00 73.25 LIG 0.16  HD
ATOM     57 O    THR G   6       9.808  43.807  48.590  1.00 75.15 LIG-0.27  OA
BRANCH 55 58
ATOM     58  CA  ALA G   7       8.991  43.962  45.889  1.00 74.45 LIG 0.16  C 
ATOM     59  CB  ALA G   7       8.468  45.181  45.143  1.00 73.04 LIG 0.04  C 
BRANCH 58 60
ATOM     60  C   ALA G   7       9.013  42.747  44.962  1.00 76.13 LIG 0.22  C 
ATOM     61 O    ALA G   7      10.054  42.120  44.760  1.00 77.97 LIG-0.29  OA
ENDBRANCH 58 60
ENDBRANCH 55 58
ENDBRANCH 49 54
ENDBRANCH 46 49
ENDBRANCH 43 45
ENDBRANCH 40 43
ENDBRANCH 37 39
ENDBRANCH 34 37
ENDBRANCH 1 33
TORSDOF 22
ENDMDL
MODEL 47
USER: ADFR SOLUTION from run 45
USER: SCORE 16.187167 LL:  -3.855 LR: -14.767 RR:   0.000 FEB:  -8.205
USER: RMSD 4.468448
USER: SEED 44
USER: STATUS no improvement in best in 21 clusters for 5 generations
USER: GENES 24
USER: genes 0 Translation |==|  0.33053 0.50785 0.44882
USER: genes 1 Rotation |==|  0.43196 0.55642 0.56843 0.98734
USER: genes 2 Torsion [CB]-CA--N-[C] |==|  0.27712
USER: genes 3 Torsion [N]-C--CA-[N] |==|  0.54054
USER: genes 4 Torsion [C]-CA--N-[C] |==|  0.75953
USER: genes 5 Torsion [N]-C--CA-[N] |==|  0.28876
USER: genes 6 Torsion [C]-CA--N-[H1] |==|  0.69120
USER: genes 7 Torsion [C]-CA--CB-[CG] |==|  0.50581
USER: genes 8 Torsion [CA]-CB--CG-[CD] |==|  0.40717
USER: genes 9 Torsion [CB]-CG--CD-[NE] |==|  0.57094
USER: genes 10 Torsion [CG]-CD--NE-[CZ] |==|  0.46733
USER: genes 11 Torsion [N]-CA--CB-[OG1] |==|  0.59193
USER: genes 12 Torsion [CA]-CB--OG1-[HG1] |==|  0.68113
USER: genes 13 Torsion [N]-CA--C-[N] |==|  0.46111
USER: genes 14 Torsion [C]-N--CA-[CB] |==|  0.53303
USER: genes 15 Torsion [N]-CA--C-[N] |==|  0.41426
USER: genes 16 Torsion [C]-N--CA-[CB] |==|  0.51805
USER: genes 17 Torsion [N]-CA--C-[N] |==|  0.44288
USER: genes 18 Torsion [C]-N--CA-[CB] |==|  0.86633
USER: genes 19 Torsion [N]-CA--CB-[CG2] |==|  0.52174
USER: genes 20 Torsion [CA]-CB--OG1-[HG1] |==|  0.16853
USER: genes 21 Torsion [N]-CA--C-[N] |==|  0.85023
USER: genes 22 Torsion [C]-N--CA-[C] |==|  0.52272
USER: genes 23 Torsion [N]-CA--C-[O] |==|  0.98491
ROOT
ATOM      1  CA  THR G   3      14.325  38.295  42.127  1.00 68.23 LIG 0.20  C 
ENDROOT
BRANCH 1 2
ATOM      2  N   THR G   3      15.738  38.282  41.762  1.00 68.42 LIG-0.34  N 
ATOM      3  C   ARG G   2      16.188  37.808  40.603  1.00 70.38 LIG 0.24  C 
ATOM      4 O    ARG G   2      15.473  37.235  39.773  1.00 69.46 LIG-0.27  OA
ATOM      5 H    THR G   3      16.253  38.610  42.368  1.00 68.42 LIG 0.16  HD
BRANCH 3 6
ATOM      6  CA  ARG G   2      17.682  37.983  40.355  1.00 72.62 LIG 0.18  C 
BRANCH 6 7
ATOM      7  N   ARG G   2      17.964  37.745  38.942  1.00 74.86 LIG-0.35  N 
ATOM      8  C   ALA G   1      18.200  36.526  38.463  1.00 76.29 LIG 0.25  C 
ATOM      9 O    ALA G   1      18.375  35.533  39.177  1.00 75.70 LIG-0.27  OA
ATOM     10 H    ARG G   2      17.963  38.456  38.458  1.00 74.86 LIG 0.16  HD
BRANCH 8 11
ATOM     11  CA  ALA G   1      18.257  36.405  36.948  1.00 78.97 LIG 0.27  C 
ATOM     12  CB  ALA G   1      17.432  35.207  36.493  1.00 79.33 LIG 0.05  C 
BRANCH 11 13
ATOM     13  N   ALA G   1      19.667  36.279  36.486  1.00 81.42 LIG-0.07  N 
ATOM     14 H3   ALA G   1      19.742  35.575  35.946  1.00 81.42 LIG 0.28  HD
ATOM     15 H2   ALA G   1      20.201  36.170  37.190  1.00 81.42 LIG 0.28  HD
ATOM     16 H1   ALA G   1      19.903  37.016  36.047  1.00 81.42 LIG 0.28  HD
ENDBRANCH 11 13
ENDBRANCH 8 11
ENDBRANCH 6 7
BRANCH 6 17
ATOM     17  CB  ARG G   2      18.145  39.382  40.776  1.00 73.45 LIG 0.04  C 
BRANCH 17 18
ATOM     18  CG  ARG G   2      19.618  39.631  40.504  1.00 75.79 LIG 0.02  C 
BRANCH 18 19
ATOM     19  CD  ARG G   2      19.903  41.079  40.137  1.00 77.52 LIG 0.14  C 
BRANCH 19 20
ATOM     20  NE  ARG G   2      21.116  41.195  39.324  1.00 80.25 LIG-0.23  N 
ATOM     21  CZ  ARG G   2      21.509  42.288  38.663  1.00 82.01 LIG 0.67  C 
ATOM     22  NH1 ARG G   2      20.795  43.416  38.689  1.00 81.47 LIG-0.23  N 
ATOM     23  NH2 ARG G   2      22.636  42.254  37.957  1.00 84.93 LIG-0.23  N 
ATOM     24 1HH1 ARG G   2      20.062  43.451  39.138  1.00 81.47 LIG 0.17  HD
ATOM     25 2HH1 ARG G   2      21.067  44.108  38.256  1.00 81.47 LIG 0.17  HD
ATOM     26 2HH2 ARG G   2      22.897  42.953  37.528  1.00 84.93 LIG 0.17  HD
ATOM     27 1HH2 ARG G   2      23.104  41.533  37.928  1.00 84.93 LIG 0.17  HD
ATOM     28 HE   ARG G   2      21.619  40.499  39.267  1.00 80.25 LIG 0.18  HD
ENDBRANCH 19 20
ENDBRANCH 18 19
ENDBRANCH 17 18
ENDBRANCH 6 17
ENDBRANCH 3 6
ENDBRANCH 1 2
BRANCH 1 29
ATOM     29  CB  THR G   3      13.960  37.119  43.063  1.00 68.23 LIG 0.15  C 
ATOM     30  CG2 THR G   3      14.087  37.530  44.518  1.00 68.63 LIG 0.04  C 
BRANCH 29 31
ATOM     31 OG1  THR G   3      12.619  36.682  42.806  1.00 67.51 LIG-0.39  OA
ATOM     32 HG1  THR G   3      12.142  36.831  43.481  1.00 67.51 LIG 0.21  HD
ENDBRANCH 29 31
ENDBRANCH 1 29
BRANCH 1 33
ATOM     33  C   THR G   3      13.966  39.611  42.808  1.00 68.02 LIG 0.24  C 
ATOM     34  N   ALA G   4      12.664  39.866  42.926  1.00 68.86 LIG-0.35  N 
ATOM     35 H    ALA G   4      12.051  39.358  42.601  1.00 68.86 LIG 0.16  HD
ATOM     36 O    THR G   3      14.846  40.375  43.212  1.00 67.54 LIG-0.27  OA
BRANCH 34 37
ATOM     37  CA  ALA G   4      12.149  41.046  43.627  1.00 69.75 LIG 0.17  C 
ATOM     38  CB  ALA G   4      10.651  40.909  43.846  1.00 70.86 LIG 0.04  C 
BRANCH 37 39
ATOM     39  C   ALA G   4      12.861  41.303  44.961  1.00 71.43 LIG 0.24  C 
ATOM     40  N   ALA G   5      12.961  42.576  45.352  1.00 71.85 LIG-0.35  N 
ATOM     41 H    ALA G   5      12.703  43.241  44.872  1.00 71.85 LIG 0.16  HD
ATOM     42 O    ALA G   4      13.307  40.358  45.618  1.00 72.80 LIG-0.27  OA
BRANCH 40 43
ATOM     43  CA  ALA G   5      13.526  42.959  46.650  1.00 72.89 LIG 0.17  C 
ATOM     44  CB  ALA G   5      13.362  44.456  46.882  1.00 72.65 LIG 0.04  C 
BRANCH 43 45
ATOM     45  C   ALA G   5      12.902  42.170  47.806  1.00 72.87 LIG 0.24  C 
ATOM     46  N   THR G   6      13.600  42.114  48.944  1.00 71.86 LIG-0.34  N 
ATOM     47 H    THR G   6      14.371  42.479  49.049  1.00 71.86 LIG 0.16  HD
ATOM     48 O    ALA G   5      11.806  41.626  47.662  1.00 74.40 LIG-0.27  OA
BRANCH 46 49
ATOM     49  CA  THR G   6      13.100  41.409  50.137  1.00 72.17 LIG 0.20  C 
BRANCH 49 50
ATOM     50  CB  THR G   6      11.638  41.784  50.473  1.00 71.29 LIG 0.15  C 
ATOM     51  CG2 THR G   6      11.219  41.190  51.816  1.00 70.64 LIG 0.04  C 
BRANCH 50 52
ATOM     52 OG1  THR G   6      11.494  43.209  50.514  1.00 70.47 LIG-0.39  OA
ATOM     53 HG1  THR G   6      11.689  43.532  49.763  1.00 70.47 LIG 0.21  HD
ENDBRANCH 50 52
ENDBRANCH 49 50
BRANCH 49 54
ATOM     54  C   THR G   6      13.209  39.883  50.008  1.00 73.53 LIG 0.24  C 
ATOM     55  N   ALA G   7      12.648  39.326  48.930  1.00 73.25 LIG-0.35  N 
ATOM     56 H    ALA G   7      12.169  39.767  48.367  1.00 73.25 LIG 0.16  HD
ATOM     57 O    THR G   6      13.781  39.232  50.885  1.00 75.15 LIG-0.27  OA
BRANCH 55 58
ATOM     58  CA  ALA G   7      12.792  37.902  48.596  1.00 74.45 LIG 0.16  C 
ATOM     59  CB  ALA G   7      12.107  37.037  49.644  1.00 73.04 LIG 0.04  C 
BRANCH 58 60
ATOM     60  C   ALA G   7      12.212  37.611  47.212  1.00 76.13 LIG 0.22  C 
ATOM     61 O    ALA G   7      11.622  38.484  46.574  1.00 77.97 LIG-0.29  OA
ENDBRANCH 58 60
ENDBRANCH 55 58
ENDBRANCH 49 54
ENDBRANCH 46 49
ENDBRANCH 43 45
ENDBRANCH 40 43
ENDBRANCH 37 39
ENDBRANCH 34 37
ENDBRANCH 1 33
TORSDOF 22
ENDMDL
MODEL 48
USER: ADFR SOLUTION from run 96
USER: SCORE 16.587108 LL:  -4.153 LR: -14.737 RR:   0.000 FEB:  -8.174
USER: RMSD 3.418590
USER: SEED 95
USER: STATUS searching
USER: GENES 24
USER: genes 0 Translation |==|  0.31909 0.49421 0.46308
USER: genes 1 Rotation |==|  0.47529 0.54037 0.56638 0.99331
USER: genes 2 Torsion [CB]-CA--N-[C] |==|  0.27719
USER: genes 3 Torsion [N]-C--CA-[N] |==|  0.51946
USER: genes 4 Torsion [C]-CA--N-[C] |==|  0.75220
USER: genes 5 Torsion [N]-C--CA-[N] |==|  0.27197
USER: genes 6 Torsion [C]-CA--N-[H1] |==|  0.83367
USER: genes 7 Torsion [C]-CA--CB-[CG] |==|  0.53785
USER: genes 8 Torsion [CA]-CB--CG-[CD] |==|  0.32413
USER: genes 9 Torsion [CB]-CG--CD-[NE] |==|  0.53294
USER: genes 10 Torsion [CG]-CD--NE-[CZ] |==|  0.54270
USER: genes 11 Torsion [N]-CA--CB-[OG1] |==|  0.61947
USER: genes 12 Torsion [CA]-CB--OG1-[HG1] |==|  0.77001
USER: genes 13 Torsion [N]-CA--C-[N] |==|  0.42194
USER: genes 14 Torsion [C]-N--CA-[CB] |==|  0.53889
USER: genes 15 Torsion [N]-CA--C-[N] |==|  0.40475
USER: genes 16 Torsion [C]-N--CA-[CB] |==|  0.79885
USER: genes 17 Torsion [N]-CA--C-[N] |==|  0.07280
USER: genes 18 Torsion [C]-N--CA-[CB] |==|  0.84980
USER: genes 19 Torsion [N]-CA--CB-[CG2] |==|  0.60861
USER: genes 20 Torsion [CA]-CB--OG1-[HG1] |==|  0.21268
USER: genes 21 Torsion [N]-CA--C-[N] |==|  0.93163
USER: genes 22 Torsion [C]-N--CA-[C] |==|  0.56926
USER: genes 23 Torsion [N]-CA--C-[O] |==|  0.98579
ROOT
ATOM      1  CA  THR G   3      14.067  38.050  42.415  1.00 68.23 LIG 0.20  C 
ENDROOT
BRANCH 1 2
ATOM      2  N   THR G   3      15.495  38.066  42.112  1.00 68.42 LIG-0.34  N 
ATOM      3  C   ARG G   2      15.987  37.795  40.906  1.00 70.38 LIG 0.24  C 
ATOM      4 O    ARG G   2      15.300  37.399  39.958  1.00 69.46 LIG-0.27  OA
ATOM      5 H    THR G   3      15.989  38.266  42.787  1.00 68.42 LIG 0.16  HD
BRANCH 3 6
ATOM      6  CA  ARG G   2      17.494  37.973  40.754  1.00 72.62 LIG 0.18  C 
BRANCH 6 7
ATOM      7  N   ARG G   2      17.857  37.804  39.350  1.00 74.86 LIG-0.35  N 
ATOM      8  C   ALA G   1      18.166  36.616  38.836  1.00 76.29 LIG 0.25  C 
ATOM      9 O    ALA G   1      18.345  35.602  39.519  1.00 75.70 LIG-0.27  OA
ATOM     10 H    ARG G   2      17.852  38.534  38.894  1.00 74.86 LIG 0.16  HD
BRANCH 8 11
ATOM     11  CA  ALA G   1      18.305  36.560  37.323  1.00 78.97 LIG 0.27  C 
ATOM     12  CB  ALA G   1      17.682  35.273  36.793  1.00 79.33 LIG 0.05  C 
BRANCH 11 13
ATOM     13  N   ALA G   1      19.737  36.654  36.925  1.00 81.42 LIG-0.07  N 
ATOM     14 H3   ALA G   1      19.803  36.621  36.038  1.00 81.42 LIG 0.28  HD
ATOM     15 H2   ALA G   1      20.189  35.975  37.281  1.00 81.42 LIG 0.28  HD
ATOM     16 H1   ALA G   1      20.078  37.422  37.219  1.00 81.42 LIG 0.28  HD
ENDBRANCH 11 13
ENDBRANCH 8 11
ENDBRANCH 6 7
BRANCH 6 17
ATOM     17  CB  ARG G   2      17.936  39.346  41.271  1.00 73.45 LIG 0.04  C 
BRANCH 17 18
ATOM     18  CG  ARG G   2      19.349  39.715  40.854  1.00 75.79 LIG 0.02  C 
BRANCH 18 19
ATOM     19  CD  ARG G   2      19.386  40.944  39.957  1.00 77.52 LIG 0.14  C 
BRANCH 19 20
ATOM     20  NE  ARG G   2      20.705  41.117  39.345  1.00 80.25 LIG-0.23  N 
ATOM     21  CZ  ARG G   2      21.148  42.230  38.751  1.00 82.01 LIG 0.67  C 
ATOM     22  NH1 ARG G   2      20.389  43.325  38.662  1.00 81.47 LIG-0.23  N 
ATOM     23  NH2 ARG G   2      22.372  42.249  38.230  1.00 84.93 LIG-0.23  N 
ATOM     24 1HH1 ARG G   2      19.594  43.325  38.991  1.00 81.47 LIG 0.17  HD
ATOM     25 2HH1 ARG G   2      20.695  44.030  38.276  1.00 81.47 LIG 0.17  HD
ATOM     26 2HH2 ARG G   2      22.665  42.961  37.847  1.00 84.93 LIG 0.17  HD
ATOM     27 1HH2 ARG G   2      22.870  41.550  38.277  1.00 84.93 LIG 0.17  HD
ATOM     28 HE   ARG G   2      21.241  40.444  39.369  1.00 80.25 LIG 0.18  HD
ENDBRANCH 19 20
ENDBRANCH 18 19
ENDBRANCH 17 18
ENDBRANCH 6 17
ENDBRANCH 3 6
ENDBRANCH 1 2
BRANCH 1 29
ATOM     29  CB  THR G   3      13.639  36.735  43.110  1.00 68.23 LIG 0.15  C 
ATOM     30  CG2 THR G   3      13.475  36.944  44.604  1.00 68.63 LIG 0.04  C 
BRANCH 29 31
ATOM     31 OG1  THR G   3      12.405  36.263  42.555  1.00 67.51 LIG-0.39  OA
ATOM     32 HG1  THR G   3      11.763  36.662  42.921  1.00 67.51 LIG 0.21  HD
ENDBRANCH 29 31
ENDBRANCH 1 29
BRANCH 1 33
ATOM     33  C   THR G   3      13.702  39.231  43.307  1.00 68.02 LIG 0.24  C 
ATOM     34  N   ALA G   4      12.453  39.679  43.193  1.00 68.86 LIG-0.35  N 
ATOM     35 H    ALA G   4      11.889  39.368  42.623  1.00 68.86 LIG 0.16  HD
ATOM     36 O    THR G   3      14.532  39.724  44.074  1.00 67.54 LIG-0.27  OA
BRANCH 34 37
ATOM     37  CA  ALA G   4      11.918  40.753  44.034  1.00 69.75 LIG 0.17  C 
ATOM     38  CB  ALA G   4      10.404  40.804  43.913  1.00 70.86 LIG 0.04  C 
BRANCH 37 39
ATOM     39  C   ALA G   4      12.330  40.619  45.505  1.00 71.43 LIG 0.24  C 
ATOM     40  N   ALA G   5      12.539  41.754  46.176  1.00 71.85 LIG-0.35  N 
ATOM     41 H    ALA G   5      12.510  42.532  45.812  1.00 71.85 LIG 0.16  HD
ATOM     42 O    ALA G   4      12.453  39.501  46.015  1.00 72.80 LIG-0.27  OA
BRANCH 40 43
ATOM     43  CA  ALA G   5      12.839  41.777  47.612  1.00 72.89 LIG 0.17  C 
ATOM     44  CB  ALA G   5      11.596  41.435  48.423  1.00 72.65 LIG 0.04  C 
BRANCH 43 45
ATOM     45  C   ALA G   5      13.988  40.830  47.975  1.00 72.87 LIG 0.24  C 
ATOM     46  N   THR G   6      14.875  40.561  47.012  1.00 71.86 LIG-0.34  N 
ATOM     47 H    THR G   6      14.822  40.876  46.214  1.00 71.86 LIG 0.16  HD
ATOM     48 O    ALA G   5      14.064  40.356  49.111  1.00 74.40 LIG-0.27  OA
BRANCH 46 49
ATOM     49  CA  THR G   6      16.039  39.686  47.239  1.00 72.17 LIG 0.20  C 
BRANCH 49 50
ATOM     50  CB  THR G   6      16.891  40.142  48.446  1.00 71.29 LIG 0.15  C 
ATOM     51  CG2 THR G   6      18.381  39.975  48.153  1.00 70.64 LIG 0.04  C 
BRANCH 50 52
ATOM     52 OG1  THR G   6      16.613  41.514  48.752  1.00 70.47 LIG-0.39  OA
ATOM     53 HG1  THR G   6      15.877  41.568  49.153  1.00 70.47 LIG 0.21  HD
ENDBRANCH 50 52
ENDBRANCH 49 50
BRANCH 49 54
ATOM     54  C   THR G   6      15.641  38.216  47.433  1.00 73.53 LIG 0.24  C 
ATOM     55  N   ALA G   7      14.402  37.978  47.876  1.00 73.25 LIG-0.35  N 
ATOM     56 H    ALA G   7      13.865  38.600  48.130  1.00 73.25 LIG 0.16  HD
ATOM     57 O    THR G   6      16.457  37.323  47.196  1.00 75.15 LIG-0.27  OA
BRANCH 55 58
ATOM     58  CA  ALA G   7      13.831  36.627  47.974  1.00 74.45 LIG 0.16  C 
ATOM     59  CB  ALA G   7      14.274  35.955  49.266  1.00 73.04 LIG 0.04  C 
BRANCH 58 60
ATOM     60  C   ALA G   7      12.305  36.680  47.903  1.00 76.13 LIG 0.22  C 
ATOM     61 O    ALA G   7      11.708  37.757  47.874  1.00 77.97 LIG-0.29  OA
ENDBRANCH 58 60
ENDBRANCH 55 58
ENDBRANCH 49 54
ENDBRANCH 46 49
ENDBRANCH 43 45
ENDBRANCH 40 43
ENDBRANCH 37 39
ENDBRANCH 34 37
ENDBRANCH 1 33
TORSDOF 22
ENDMDL
MODEL 49
USER: ADFR SOLUTION from run 36
USER: SCORE 14.474098 LL:  -3.659 LR: -14.739 RR:   0.000 FEB:  -8.177
USER: RMSD 3.722333
USER: SEED 35
USER: STATUS no improvement in best in 11 clusters for 5 generations
USER: GENES 24
USER: genes 0 Translation |==|  0.31976 0.49085 0.45647
USER: genes 1 Rotation |==|  0.52325 0.53265 0.57093 0.99332
USER: genes 2 Torsion [CB]-CA--N-[C] |==|  0.24133
USER: genes 3 Torsion [N]-C--CA-[N] |==|  0.51514
USER: genes 4 Torsion [C]-CA--N-[C] |==|  0.75826
USER: genes 5 Torsion [N]-C--CA-[N] |==|  0.26574
USER: genes 6 Torsion [C]-CA--N-[H1] |==|  0.85603
USER: genes 7 Torsion [C]-CA--CB-[CG] |==|  0.52010
USER: genes 8 Torsion [CA]-CB--CG-[CD] |==|  0.35632
USER: genes 9 Torsion [CB]-CG--CD-[NE] |==|  0.55886
USER: genes 10 Torsion [CG]-CD--NE-[CZ] |==|  0.51497
USER: genes 11 Torsion [N]-CA--CB-[OG1] |==|  0.54962
USER: genes 12 Torsion [CA]-CB--OG1-[HG1] |==|  0.74522
USER: genes 13 Torsion [N]-CA--C-[N] |==|  0.37614
USER: genes 14 Torsion [C]-N--CA-[CB] |==|  0.55556
USER: genes 15 Torsion [N]-CA--C-[N] |==|  0.89697
USER: genes 16 Torsion [C]-N--CA-[CB] |==|  0.52784
USER: genes 17 Torsion [N]-CA--C-[N] |==|  0.28145
USER: genes 18 Torsion [C]-N--CA-[CB] |==|  0.22973
USER: genes 19 Torsion [N]-CA--CB-[CG2] |==|  0.39752
USER: genes 20 Torsion [CA]-CB--OG1-[HG1] |==|  0.09306
USER: genes 21 Torsion [N]-CA--C-[N] |==|  0.88399
USER: genes 22 Torsion [C]-N--CA-[C] |==|  0.62151
USER: genes 23 Torsion [N]-CA--C-[O] |==|  0.02681
ROOT
ATOM      1  CA  THR G   3      14.083  37.989  42.282  1.00 68.23 LIG 0.20  C 
ENDROOT
BRANCH 1 2
ATOM      2  N   THR G   3      15.511  38.069  41.994  1.00 68.42 LIG-0.34  N 
ATOM      3  C   ARG G   2      16.031  37.793  40.800  1.00 70.38 LIG 0.24  C 
ATOM      4 O    ARG G   2      15.375  37.340  39.855  1.00 69.46 LIG-0.27  OA
ATOM      5 H    THR G   3      15.986  38.311  42.669  1.00 68.42 LIG 0.16  HD
BRANCH 3 6
ATOM      6  CA  ARG G   2      17.529  38.042  40.660  1.00 72.62 LIG 0.18  C 
BRANCH 6 7
ATOM      7  N   ARG G   2      17.923  37.820  39.272  1.00 74.86 LIG-0.35  N 
ATOM      8  C   ALA G   1      18.261  36.616  38.815  1.00 76.29 LIG 0.25  C 
ATOM      9 O    ALA G   1      18.441  35.636  39.544  1.00 75.70 LIG-0.27  OA
ATOM     10 H    ARG G   2      17.916  38.530  38.786  1.00 74.86 LIG 0.16  HD
BRANCH 8 11
ATOM     11  CA  ALA G   1      18.433  36.499  37.309  1.00 78.97 LIG 0.27  C 
ATOM     12  CB  ALA G   1      17.891  35.157  36.829  1.00 79.33 LIG 0.05  C 
BRANCH 11 13
ATOM     13  N   ALA G   1      19.865  36.654  36.932  1.00 81.42 LIG-0.07  N 
ATOM     14 H3   ALA G   1      19.936  36.702  36.045  1.00 81.42 LIG 0.28  HD
ATOM     15 H2   ALA G   1      20.328  35.954  37.229  1.00 81.42 LIG 0.28  HD
ATOM     16 H1   ALA G   1      20.189  37.399  37.295  1.00 81.42 LIG 0.28  HD
ENDBRANCH 11 13
ENDBRANCH 8 11
ENDBRANCH 6 7
BRANCH 6 17
ATOM     17  CB  ARG G   2      17.890  39.461  41.110  1.00 73.45 LIG 0.04  C 
BRANCH 17 18
ATOM     18  CG  ARG G   2      19.338  39.827  40.831  1.00 75.79 LIG 0.02  C 
BRANCH 18 19
ATOM     19  CD  ARG G   2      19.468  41.143  40.080  1.00 77.52 LIG 0.14  C 
BRANCH 19 20
ATOM     20  NE  ARG G   2      20.759  41.239  39.393  1.00 80.25 LIG-0.23  N 
ATOM     21  CZ  ARG G   2      21.212  42.311  38.735  1.00 82.01 LIG 0.67  C 
ATOM     22  NH1 ARG G   2      20.494  43.432  38.644  1.00 81.47 LIG-0.23  N 
ATOM     23  NH2 ARG G   2      22.407  42.260  38.151  1.00 84.93 LIG-0.23  N 
ATOM     24 1HH1 ARG G   2      19.718  43.477  39.014  1.00 81.47 LIG 0.17  HD
ATOM     25 2HH1 ARG G   2      20.806  44.110  38.216  1.00 81.47 LIG 0.17  HD
ATOM     26 2HH2 ARG G   2      22.708  42.945  37.726  1.00 84.93 LIG 0.17  HD
ATOM     27 1HH2 ARG G   2      22.879  41.543  38.199  1.00 84.93 LIG 0.17  HD
ATOM     28 HE   ARG G   2      21.268  40.546  39.415  1.00 80.25 LIG 0.18  HD
ENDBRANCH 19 20
ENDBRANCH 18 19
ENDBRANCH 17 18
ENDBRANCH 6 17
ENDBRANCH 3 6
ENDBRANCH 1 2
BRANCH 1 29
ATOM     29  CB  THR G   3      13.658  36.564  42.706  1.00 68.23 LIG 0.15  C 
ATOM     30  CG2 THR G   3      14.069  36.283  44.140  1.00 68.63 LIG 0.04  C 
BRANCH 29 31
ATOM     31 OG1  THR G   3      12.238  36.413  42.578  1.00 67.51 LIG-0.39  OA
ATOM     32 HG1  THR G   3      11.869  36.611  43.305  1.00 67.51 LIG 0.21  HD
ENDBRANCH 29 31
ENDBRANCH 1 29
BRANCH 1 33
ATOM     33  C   THR G   3      13.709  38.974  43.384  1.00 68.02 LIG 0.24  C 
ATOM     34  N   ALA G   4      12.604  39.687  43.174  1.00 68.86 LIG-0.35  N 
ATOM     35 H    ALA G   4      12.144  39.645  42.448  1.00 68.86 LIG 0.16  HD
ATOM     36 O    THR G   3      14.407  39.087  44.394  1.00 67.54 LIG-0.27  OA
BRANCH 34 37
ATOM     37  CA  ALA G   4      12.061  40.617  44.168  1.00 69.75 LIG 0.17  C 
ATOM     38  CB  ALA G   4      10.595  40.894  43.877  1.00 70.86 LIG 0.04  C 
BRANCH 37 39
ATOM     39  C   ALA G   4      12.233  40.117  45.608  1.00 71.43 LIG 0.24  C 
ATOM     40  N   ALA G   5      12.090  38.805  45.808  1.00 71.85 LIG-0.35  N 
ATOM     41 H    ALA G   5      11.853  38.254  45.192  1.00 71.85 LIG 0.16  HD
ATOM     42 O    ALA G   4      12.493  40.914  46.514  1.00 72.80 LIG-0.27  OA
BRANCH 40 43
ATOM     43  CA  ALA G   5      12.325  38.177  47.113  1.00 72.89 LIG 0.17  C 
ATOM     44  CB  ALA G   5      12.327  36.659  46.981  1.00 72.65 LIG 0.04  C 
BRANCH 43 45
ATOM     45  C   ALA G   5      13.631  38.656  47.756  1.00 72.87 LIG 0.24  C 
ATOM     46  N   THR G   6      13.527  39.578  48.717  1.00 71.86 LIG-0.34  N 
ATOM     47 H    THR G   6      12.779  39.916  48.975  1.00 71.86 LIG 0.16  HD
ATOM     48 O    ALA G   5      14.711  38.193  47.382  1.00 74.40 LIG-0.27  OA
BRANCH 46 49
ATOM     49  CA  THR G   6      14.703  40.103  49.432  1.00 72.17 LIG 0.20  C 
BRANCH 49 50
ATOM     50  CB  THR G   6      15.412  41.233  48.649  1.00 71.29 LIG 0.15  C 
ATOM     51  CG2 THR G   6      15.935  42.307  49.599  1.00 70.64 LIG 0.04  C 
BRANCH 50 52
ATOM     52 OG1  THR G   6      16.500  40.694  47.889  1.00 70.47 LIG-0.39  OA
ATOM     53 HG1  THR G   6      16.304  39.919  47.630  1.00 70.47 LIG 0.21  HD
ENDBRANCH 50 52
ENDBRANCH 49 50
BRANCH 49 54
ATOM     54  C   THR G   6      14.357  40.611  50.840  1.00 73.53 LIG 0.24  C 
ATOM     55  N   ALA G   7      13.227  41.312  50.969  1.00 73.25 LIG-0.35  N 
ATOM     56 H    ALA G   7      12.744  41.556  50.300  1.00 73.25 LIG 0.16  HD
ATOM     57 O    THR G   6      15.118  40.376  51.781  1.00 75.15 LIG-0.27  OA
BRANCH 55 58
ATOM     58  CA  ALA G   7      12.692  41.739  52.270  1.00 74.45 LIG 0.16  C 
ATOM     59  CB  ALA G   7      13.006  43.207  52.519  1.00 73.04 LIG 0.04  C 
BRANCH 58 60
ATOM     60  C   ALA G   7      11.182  41.505  52.336  1.00 76.13 LIG 0.22  C 
ATOM     61 O    ALA G   7      10.600  40.863  51.461  1.00 77.97 LIG-0.29  OA
ENDBRANCH 58 60
ENDBRANCH 55 58
ENDBRANCH 49 54
ENDBRANCH 46 49
ENDBRANCH 43 45
ENDBRANCH 40 43
ENDBRANCH 37 39
ENDBRANCH 34 37
ENDBRANCH 1 33
TORSDOF 22
ENDMDL
MODEL 50
USER: ADFR SOLUTION from run 192
USER: SCORE 15.569930 LL:  -3.251 LR: -14.721 RR:   0.000 FEB:  -8.159
USER: RMSD 4.344495
USER: SEED 191
USER: STATUS searching
USER: GENES 24
USER: genes 0 Translation |==|  0.32701 0.46038 0.45838
USER: genes 1 Rotation |==|  0.58715 0.54869 0.57051 0.98483
USER: genes 2 Torsion [CB]-CA--N-[C] |==|  0.21375
USER: genes 3 Torsion [N]-C--CA-[N] |==|  0.50375
USER: genes 4 Torsion [C]-CA--N-[C] |==|  0.76015
USER: genes 5 Torsion [N]-C--CA-[N] |==|  0.28526
USER: genes 6 Torsion [C]-CA--N-[H1] |==|  0.68520
USER: genes 7 Torsion [C]-CA--CB-[CG] |==|  0.50501
USER: genes 8 Torsion [CA]-CB--CG-[CD] |==|  0.37979
USER: genes 9 Torsion [CB]-CG--CD-[NE] |==|  0.55268
USER: genes 10 Torsion [CG]-CD--NE-[CZ] |==|  0.49895
USER: genes 11 Torsion [N]-CA--CB-[OG1] |==|  0.02211
USER: genes 12 Torsion [CA]-CB--OG1-[HG1] |==|  0.10480
USER: genes 13 Torsion [N]-CA--C-[N] |==|  0.57446
USER: genes 14 Torsion [C]-N--CA-[CB] |==|  0.84956
USER: genes 15 Torsion [N]-CA--C-[N] |==|  0.97003
USER: genes 16 Torsion [C]-N--CA-[CB] |==|  0.79152
USER: genes 17 Torsion [N]-CA--C-[N] |==|  0.25458
USER: genes 18 Torsion [C]-N--CA-[CB] |==|  0.20225
USER: genes 19 Torsion [N]-CA--CB-[CG2] |==|  0.70537
USER: genes 20 Torsion [CA]-CB--OG1-[HG1] |==|  0.43584
USER: genes 21 Torsion [N]-CA--C-[N] |==|  0.84209
USER: genes 22 Torsion [C]-N--CA-[C] |==|  0.82060
USER: genes 23 Torsion [N]-CA--C-[O] |==|  0.91287
ROOT
ATOM      1  CA  THR G   3      14.246  37.441  42.320  1.00 68.23 LIG 0.20  C 
ENDROOT
BRANCH 1 2
ATOM      2  N   THR G   3      15.640  37.591  41.916  1.00 68.42 LIG-0.34  N 
ATOM      3  C   ARG G   2      16.057  37.424  40.663  1.00 70.38 LIG 0.24  C 
ATOM      4 O    ARG G   2      15.332  37.022  39.746  1.00 69.46 LIG-0.27  OA
ATOM      5 H    THR G   3      16.167  37.797  42.563  1.00 68.42 LIG 0.16  HD
BRANCH 3 6
ATOM      6  CA  ARG G   2      17.529  37.734  40.413  1.00 72.62 LIG 0.18  C 
BRANCH 6 7
ATOM      7  N   ARG G   2      17.826  37.537  38.997  1.00 74.86 LIG-0.35  N 
ATOM      8  C   ALA G   1      18.163  36.348  38.502  1.00 76.29 LIG 0.25  C 
ATOM      9 O    ALA G   1      18.424  35.366  39.204  1.00 75.70 LIG-0.27  OA
ATOM     10 H    ARG G   2      17.763  38.250  38.520  1.00 74.86 LIG 0.16  HD
BRANCH 8 11
ATOM     11  CA  ALA G   1      18.226  36.250  36.986  1.00 78.97 LIG 0.27  C 
ATOM     12  CB  ALA G   1      17.531  34.975  36.521  1.00 79.33 LIG 0.05  C 
BRANCH 11 13
ATOM     13  N   ALA G   1      19.639  36.280  36.518  1.00 81.42 LIG-0.07  N 
ATOM     14 H3   ALA G   1      19.794  35.577  35.994  1.00 81.42 LIG 0.28  HD
ATOM     15 H2   ALA G   1      20.185  36.253  37.220  1.00 81.42 LIG 0.28  HD
ATOM     16 H1   ALA G   1      19.784  37.029  36.059  1.00 81.42 LIG 0.28  HD
ENDBRANCH 11 13
ENDBRANCH 8 11
ENDBRANCH 6 7
BRANCH 6 17
ATOM     17  CB  ARG G   2      17.867  39.164  40.848  1.00 73.45 LIG 0.04  C 
BRANCH 17 18
ATOM     18  CG  ARG G   2      19.314  39.544  40.581  1.00 75.79 LIG 0.02  C 
BRANCH 18 19
ATOM     19  CD  ARG G   2      19.447  40.942  39.998  1.00 77.52 LIG 0.14  C 
BRANCH 19 20
ATOM     20  NE  ARG G   2      20.745  41.125  39.343  1.00 80.25 LIG-0.23  N 
ATOM     21  CZ  ARG G   2      21.158  42.240  38.732  1.00 82.01 LIG 0.67  C 
ATOM     22  NH1 ARG G   2      20.386  43.328  38.663  1.00 81.47 LIG-0.23  N 
ATOM     23  NH2 ARG G   2      22.364  42.268  38.172  1.00 84.93 LIG-0.23  N 
ATOM     24 1HH1 ARG G   2      19.602  43.322  39.017  1.00 81.47 LIG 0.17  HD
ATOM     25 2HH1 ARG G   2      20.673  44.034  38.265  1.00 81.47 LIG 0.17  HD
ATOM     26 2HH2 ARG G   2      22.639  42.981  37.776  1.00 84.93 LIG 0.17  HD
ATOM     27 1HH2 ARG G   2      22.871  41.574  38.205  1.00 84.93 LIG 0.17  HD
ATOM     28 HE   ARG G   2      21.287  40.458  39.352  1.00 80.25 LIG 0.18  HD
ENDBRANCH 19 20
ENDBRANCH 18 19
ENDBRANCH 17 18
ENDBRANCH 6 17
ENDBRANCH 3 6
ENDBRANCH 1 2
BRANCH 1 29
ATOM     29  CB  THR G   3      13.833  35.954  42.428  1.00 68.23 LIG 0.15  C 
ATOM     30  CG2 THR G   3      12.807  35.601  41.367  1.00 68.63 LIG 0.04  C 
BRANCH 29 31
ATOM     31 OG1  THR G   3      14.982  35.110  42.281  1.00 67.51 LIG-0.39  OA
ATOM     32 HG1  THR G   3      15.641  35.466  42.661  1.00 67.51 LIG 0.21  HD
ENDBRANCH 29 31
ENDBRANCH 1 29
BRANCH 1 33
ATOM     33  C   THR G   3      14.007  38.128  43.660  1.00 68.02 LIG 0.24  C 
ATOM     34  N   ALA G   4      13.012  37.634  44.395  1.00 68.86 LIG-0.35  N 
ATOM     35 H    ALA G   4      12.494  37.002  44.127  1.00 68.86 LIG 0.16  HD
ATOM     36 O    THR G   3      14.703  39.081  44.015  1.00 67.54 LIG-0.27  OA
BRANCH 34 37
ATOM     37  CA  ALA G   4      12.702  38.125  45.741  1.00 69.75 LIG 0.17  C 
ATOM     38  CB  ALA G   4      13.943  38.065  46.616  1.00 70.86 LIG 0.04  C 
BRANCH 37 39
ATOM     39  C   ALA G   4      12.122  39.545  45.737  1.00 71.43 LIG 0.24  C 
ATOM     40  N   ALA G   5      12.183  40.215  44.584  1.00 71.85 LIG-0.35  N 
ATOM     41 H    ALA G   5      12.576  39.915  43.881  1.00 71.85 LIG 0.16  HD
ATOM     42 O    ALA G   4      11.628  40.016  46.765  1.00 72.80 LIG-0.27  OA
BRANCH 40 43
ATOM     43  CA  ALA G   5      11.579  41.541  44.409  1.00 72.89 LIG 0.17  C 
ATOM     44  CB  ALA G   5      10.065  41.425  44.289  1.00 72.65 LIG 0.04  C 
BRANCH 43 45
ATOM     45  C   ALA G   5      11.950  42.497  45.547  1.00 72.87 LIG 0.24  C 
ATOM     46  N   THR G   6      13.036  43.255  45.368  1.00 71.86 LIG-0.34  N 
ATOM     47 H    THR G   6      13.531  43.220  44.666  1.00 71.86 LIG 0.16  HD
ATOM     48 O    ALA G   5      11.259  42.543  46.567  1.00 74.40 LIG-0.27  OA
BRANCH 46 49
ATOM     49  CA  THR G   6      13.486  44.233  46.374  1.00 72.17 LIG 0.20  C 
BRANCH 49 50
ATOM     50  CB  THR G   6      14.110  43.555  47.616  1.00 71.29 LIG 0.15  C 
ATOM     51  CG2 THR G   6      13.161  43.627  48.809  1.00 70.64 LIG 0.04  C 
BRANCH 50 52
ATOM     52 OG1  THR G   6      14.414  42.185  47.326  1.00 70.47 LIG-0.39  OA
ATOM     53 HG1  THR G   6      15.013  41.914  47.849  1.00 70.47 LIG 0.21  HD
ENDBRANCH 50 52
ENDBRANCH 49 50
BRANCH 49 54
ATOM     54  C   THR G   6      14.487  45.247  45.801  1.00 73.53 LIG 0.24  C 
ATOM     55  N   ALA G   7      15.596  44.753  45.242  1.00 73.25 LIG-0.35  N 
ATOM     56 H    ALA G   7      15.805  43.919  45.266  1.00 73.25 LIG 0.16  HD
ATOM     57 O    THR G   6      14.252  46.455  45.883  1.00 75.15 LIG-0.27  OA
BRANCH 55 58
ATOM     58  CA  ALA G   7      16.573  45.586  44.527  1.00 74.45 LIG 0.16  C 
ATOM     59  CB  ALA G   7      17.801  44.766  44.156  1.00 73.04 LIG 0.04  C 
BRANCH 58 60
ATOM     60  C   ALA G   7      15.948  46.196  43.273  1.00 76.13 LIG 0.22  C 
ATOM     61 O    ALA G   7      15.068  45.602  42.649  1.00 77.97 LIG-0.29  OA
ENDBRANCH 58 60
ENDBRANCH 55 58
ENDBRANCH 49 54
ENDBRANCH 46 49
ENDBRANCH 43 45
ENDBRANCH 40 43
ENDBRANCH 37 39
ENDBRANCH 34 37
ENDBRANCH 1 33
TORSDOF 22
ENDMDL
MODEL 51
USER: ADFR SOLUTION from run 55
USER: SCORE 14.999512 LL:  -3.351 LR: -14.689 RR:   0.000 FEB:  -8.127
USER: RMSD 3.091760
USER: SEED 54
USER: STATUS searching
USER: GENES 24
USER: genes 0 Translation |==|  0.32150 0.48772 0.45087
USER: genes 1 Rotation |==|  0.53612 0.52478 0.56233 0.99416
USER: genes 2 Torsion [CB]-CA--N-[C] |==|  0.24430
USER: genes 3 Torsion [N]-C--CA-[N] |==|  0.50552
USER: genes 4 Torsion [C]-CA--N-[C] |==|  0.78063
USER: genes 5 Torsion [N]-C--CA-[N] |==|  0.23160
USER: genes 6 Torsion [C]-CA--N-[H1] |==|  0.51257
USER: genes 7 Torsion [C]-CA--CB-[CG] |==|  0.54396
USER: genes 8 Torsion [CA]-CB--CG-[CD] |==|  0.31764
USER: genes 9 Torsion [CB]-CG--CD-[NE] |==|  0.52845
USER: genes 10 Torsion [CG]-CD--NE-[CZ] |==|  0.57145
USER: genes 11 Torsion [N]-CA--CB-[OG1] |==|  0.35737
USER: genes 12 Torsion [CA]-CB--OG1-[HG1] |==|  0.25310
USER: genes 13 Torsion [N]-CA--C-[N] |==|  0.38464
USER: genes 14 Torsion [C]-N--CA-[CB] |==|  0.53889
USER: genes 15 Torsion [N]-CA--C-[N] |==|  0.93336
USER: genes 16 Torsion [C]-N--CA-[CB] |==|  0.53742
USER: genes 17 Torsion [N]-CA--C-[N] |==|  0.31344
USER: genes 18 Torsion [C]-N--CA-[CB] |==|  0.84902
USER: genes 19 Torsion [N]-CA--CB-[CG2] |==|  0.54525
USER: genes 20 Torsion [CA]-CB--OG1-[HG1] |==|  0.19582
USER: genes 21 Torsion [N]-CA--C-[N] |==|  0.37722
USER: genes 22 Torsion [C]-N--CA-[C] |==|  0.78175
USER: genes 23 Torsion [N]-CA--C-[O] |==|  0.94516
ROOT
ATOM      1  CA  THR G   3      14.122  37.933  42.168  1.00 68.23 LIG 0.20  C 
ENDROOT
BRANCH 1 2
ATOM      2  N   THR G   3      15.559  37.971  41.916  1.00 68.42 LIG-0.34  N 
ATOM      3  C   ARG G   2      16.094  37.757  40.716  1.00 70.38 LIG 0.24  C 
ATOM      4 O    ARG G   2      15.442  37.401  39.728  1.00 69.46 LIG-0.27  OA
ATOM      5 H    THR G   3      16.027  38.143  42.615  1.00 68.42 LIG 0.16  HD
BRANCH 3 6
ATOM      6  CA  ARG G   2      17.604  37.951  40.624  1.00 72.62 LIG 0.18  C 
BRANCH 6 7
ATOM      7  N   ARG G   2      18.032  37.729  39.246  1.00 74.86 LIG-0.35  N 
ATOM      8  C   ALA G   1      18.187  36.507  38.740  1.00 76.29 LIG 0.25  C 
ATOM      9 O    ALA G   1      18.157  35.478  39.421  1.00 75.70 LIG-0.27  OA
ATOM     10 H    ARG G   2      18.172  38.451  38.800  1.00 74.86 LIG 0.16  HD
BRANCH 8 11
ATOM     11  CA  ALA G   1      18.420  36.433  37.239  1.00 78.97 LIG 0.27  C 
ATOM     12  CB  ALA G   1      17.952  35.082  36.710  1.00 79.33 LIG 0.05  C 
BRANCH 11 13
ATOM     13  N   ALA G   1      19.858  36.654  36.921  1.00 81.42 LIG-0.07  N 
ATOM     14 H3   ALA G   1      20.344  35.993  37.266  1.00 81.42 LIG 0.28  HD
ATOM     15 H2   ALA G   1      20.122  37.429  37.269  1.00 81.42 LIG 0.28  HD
ATOM     16 H1   ALA G   1      19.967  36.673  36.038  1.00 81.42 LIG 0.28  HD
ENDBRANCH 11 13
ENDBRANCH 8 11
ENDBRANCH 6 7
BRANCH 6 17
ATOM     17  CB  ARG G   2      18.005  39.350  41.103  1.00 73.45 LIG 0.04  C 
BRANCH 17 18
ATOM     18  CG  ARG G   2      19.412  39.743  40.688  1.00 75.79 LIG 0.02  C 
BRANCH 18 19
ATOM     19  CD  ARG G   2      19.424  40.907  39.710  1.00 77.52 LIG 0.14  C 
BRANCH 19 20
ATOM     20  NE  ARG G   2      20.758  41.112  39.140  1.00 80.25 LIG-0.23  N 
ATOM     21  CZ  ARG G   2      21.232  42.267  38.663  1.00 82.01 LIG 0.67  C 
ATOM     22  NH1 ARG G   2      20.494  43.380  38.664  1.00 81.47 LIG-0.23  N 
ATOM     23  NH2 ARG G   2      22.467  42.311  38.169  1.00 84.93 LIG-0.23  N 
ATOM     24 1HH1 ARG G   2      19.693  43.364  38.976  1.00 81.47 LIG 0.17  HD
ATOM     25 2HH1 ARG G   2      20.821  44.112  38.352  1.00 81.47 LIG 0.17  HD
ATOM     26 2HH2 ARG G   2      22.780  43.050  37.860  1.00 84.93 LIG 0.17  HD
ATOM     27 1HH2 ARG G   2      22.952  41.601  38.159  1.00 84.93 LIG 0.17  HD
ATOM     28 HE   ARG G   2      21.282  40.430  39.111  1.00 80.25 LIG 0.18  HD
ENDBRANCH 19 20
ENDBRANCH 18 19
ENDBRANCH 17 18
ENDBRANCH 6 17
ENDBRANCH 3 6
ENDBRANCH 1 2
BRANCH 1 29
ATOM     29  CB  THR G   3      13.632  36.505  42.507  1.00 68.23 LIG 0.15  C 
ATOM     30  CG2 THR G   3      14.806  35.556  42.663  1.00 68.63 LIG 0.04  C 
BRANCH 29 31
ATOM     31 OG1  THR G   3      12.866  36.520  43.718  1.00 67.51 LIG-0.39  OA
ATOM     32 HG1  THR G   3      12.054  36.635  43.534  1.00 67.51 LIG 0.21  HD
ENDBRANCH 29 31
ENDBRANCH 1 29
BRANCH 1 33
ATOM     33  C   THR G   3      13.761  38.873  43.313  1.00 68.02 LIG 0.24  C 
ATOM     34  N   ALA G   4      12.653  39.593  43.145  1.00 68.86 LIG-0.35  N 
ATOM     35 H    ALA G   4      12.185  39.580  42.423  1.00 68.86 LIG 0.16  HD
ATOM     36 O    THR G   3      14.470  38.945  44.319  1.00 67.54 LIG-0.27  OA
BRANCH 34 37
ATOM     37  CA  ALA G   4      12.122  40.483  44.181  1.00 69.75 LIG 0.17  C 
ATOM     38  CB  ALA G   4      10.698  40.889  43.839  1.00 70.86 LIG 0.04  C 
BRANCH 37 39
ATOM     39  C   ALA G   4      12.177  39.863  45.583  1.00 71.43 LIG 0.24  C 
ATOM     40  N   ALA G   5      12.201  38.530  45.649  1.00 71.85 LIG-0.35  N 
ATOM     41 H    ALA G   5      12.129  38.019  44.961  1.00 71.85 LIG 0.16  HD
ATOM     42 O    ALA G   4      12.199  40.588  46.581  1.00 72.80 LIG-0.27  OA
BRANCH 40 43
ATOM     43  CA  ALA G   5      12.354  37.806  46.916  1.00 72.89 LIG 0.17  C 
ATOM     44  CB  ALA G   5      12.678  36.340  46.657  1.00 72.65 LIG 0.04  C 
BRANCH 43 45
ATOM     45  C   ALA G   5      13.424  38.436  47.814  1.00 72.87 LIG 0.24  C 
ATOM     46  N   THR G   6      13.003  39.003  48.947  1.00 71.86 LIG-0.34  N 
ATOM     47 H    THR G   6      12.177  39.042  49.183  1.00 71.86 LIG 0.16  HD
ATOM     48 O    ALA G   5      14.610  38.404  47.477  1.00 74.40 LIG-0.27  OA
BRANCH 46 49
ATOM     49  CA  THR G   6      13.932  39.621  49.909  1.00 72.17 LIG 0.20  C 
BRANCH 49 50
ATOM     50  CB  THR G   6      15.054  38.652  50.350  1.00 71.29 LIG 0.15  C 
ATOM     51  CG2 THR G   6      15.745  39.158  51.614  1.00 70.64 LIG 0.04  C 
BRANCH 50 52
ATOM     52 OG1  THR G   6      14.510  37.349  50.590  1.00 70.47 LIG-0.39  OA
ATOM     53 HG1  THR G   6      14.285  37.000  49.860  1.00 70.47 LIG 0.21  HD
ENDBRANCH 50 52
ENDBRANCH 49 50
BRANCH 49 54
ATOM     54  C   THR G   6      14.568  40.910  49.368  1.00 73.53 LIG 0.24  C 
ATOM     55  N   ALA G   7      14.629  41.951  50.204  1.00 73.25 LIG-0.35  N 
ATOM     56 H    ALA G   7      14.260  41.954  50.981  1.00 73.25 LIG 0.16  HD
ATOM     57 O    THR G   6      14.979  40.951  48.206  1.00 75.15 LIG-0.27  OA
BRANCH 55 58
ATOM     58  CA  ALA G   7      15.334  43.199  49.880  1.00 74.45 LIG 0.16  C 
ATOM     59  CB  ALA G   7      14.820  44.341  50.745  1.00 73.04 LIG 0.04  C 
BRANCH 58 60
ATOM     60  C   ALA G   7      16.842  43.032  50.069  1.00 76.13 LIG 0.22  C 
ATOM     61 O    ALA G   7      17.298  42.126  50.767  1.00 77.97 LIG-0.29  OA
ENDBRANCH 58 60
ENDBRANCH 55 58
ENDBRANCH 49 54
ENDBRANCH 46 49
ENDBRANCH 43 45
ENDBRANCH 40 43
ENDBRANCH 37 39
ENDBRANCH 34 37
ENDBRANCH 1 33
TORSDOF 22
ENDMDL
MODEL 52
USER: ADFR SOLUTION from run 12
USER: SCORE 15.064541 LL:  -3.242 LR: -14.636 RR:   0.000 FEB:  -8.074
USER: RMSD 4.263649
USER: SEED 94617
USER: STATUS no improvement in best in 32 clusters for 5 generations
USER: GENES 24
USER: genes 0 Translation |==|  0.33745 0.41514 0.42280
USER: genes 1 Rotation |==|  0.45315 0.54952 0.45400 0.99319
USER: genes 2 Torsion [CB]-CA--N-[C] |==|  0.48334
USER: genes 3 Torsion [N]-C--CA-[N] |==|  0.40675
USER: genes 4 Torsion [C]-CA--N-[C] |==|  0.81917
USER: genes 5 Torsion [N]-C--CA-[N] |==|  0.02008
USER: genes 6 Torsion [C]-CA--N-[H1] |==|  0.47157
USER: genes 7 Torsion [C]-CA--CB-[CG] |==|  0.60266
USER: genes 8 Torsion [CA]-CB--CG-[CD] |==|  0.30192
USER: genes 9 Torsion [CB]-CG--CD-[NE] |==|  0.63160
USER: genes 10 Torsion [CG]-CD--NE-[CZ] |==|  0.83153
USER: genes 11 Torsion [N]-CA--CB-[OG1] |==|  0.53956
USER: genes 12 Torsion [CA]-CB--OG1-[HG1] |==|  0.69139
USER: genes 13 Torsion [N]-CA--C-[N] |==|  0.38670
USER: genes 14 Torsion [C]-N--CA-[CB] |==|  0.49834
USER: genes 15 Torsion [N]-CA--C-[N] |==|  0.83340
USER: genes 16 Torsion [C]-N--CA-[CB] |==|  0.85616
USER: genes 17 Torsion [N]-CA--C-[N] |==|  0.87234
USER: genes 18 Torsion [C]-N--CA-[CB] |==|  0.85988
USER: genes 19 Torsion [N]-CA--CB-[CG2] |==|  0.47417
USER: genes 20 Torsion [CA]-CB--OG1-[HG1] |==|  0.18272
USER: genes 21 Torsion [N]-CA--C-[N] |==|  0.88581
USER: genes 22 Torsion [C]-N--CA-[C] |==|  0.68478
USER: genes 23 Torsion [N]-CA--C-[O] |==|  0.98938
ROOT
ATOM      1  CA  THR G   3      14.481  36.627  41.600  1.00 68.23 LIG 0.20  C 
ENDROOT
BRANCH 1 2
ATOM      2  N   THR G   3      15.769  35.994  41.334  1.00 68.42 LIG-0.34  N 
ATOM      3  C   ARG G   2      16.691  36.525  40.535  1.00 70.38 LIG 0.24  C 
ATOM      4 O    ARG G   2      16.507  37.543  39.858  1.00 69.46 LIG-0.27  OA
ATOM      5 H    THR G   3      15.876  35.245  41.743  1.00 68.42 LIG 0.16  HD
BRANCH 3 6
ATOM      6  CA  ARG G   2      18.018  35.776  40.471  1.00 72.62 LIG 0.18  C 
BRANCH 6 7
ATOM      7  N   ARG G   2      18.574  35.903  39.127  1.00 74.86 LIG-0.35  N 
ATOM      8  C   ALA G   1      17.977  35.377  38.060  1.00 76.29 LIG 0.25  C 
ATOM      9 O    ALA G   1      17.019  34.601  38.127  1.00 75.70 LIG-0.27  OA
ATOM     10 H    ARG G   2      19.313  36.343  39.092  1.00 74.86 LIG 0.16  HD
BRANCH 8 11
ATOM     11  CA  ALA G   1      18.552  35.776  36.710  1.00 78.97 LIG 0.27  C 
ATOM     12  CB  ALA G   1      18.811  34.531  35.869  1.00 79.33 LIG 0.05  C 
BRANCH 11 13
ATOM     13  N   ALA G   1      19.805  36.562  36.886  1.00 81.42 LIG-0.07  N 
ATOM     14 H3   ALA G   1      20.349  36.133  37.445  1.00 81.42 LIG 0.28  HD
ATOM     15 H2   ALA G   1      19.608  37.363  37.221  1.00 81.42 LIG 0.28  HD
ATOM     16 H1   ALA G   1      20.207  36.661  36.099  1.00 81.42 LIG 0.28  HD
ENDBRANCH 11 13
ENDBRANCH 8 11
ENDBRANCH 6 7
BRANCH 6 17
ATOM     17  CB  ARG G   2      18.997  36.309  41.521  1.00 73.45 LIG 0.04  C 
BRANCH 17 18
ATOM     18  CG  ARG G   2      20.436  36.342  41.034  1.00 75.79 LIG 0.02  C 
BRANCH 18 19
ATOM     19  CD  ARG G   2      20.932  37.759  40.789  1.00 77.52 LIG 0.14  C 
BRANCH 19 20
ATOM     20  NE  ARG G   2      21.607  37.871  39.494  1.00 80.25 LIG-0.23  N 
ATOM     21  CZ  ARG G   2      22.701  37.195  39.126  1.00 82.01 LIG 0.67  C 
ATOM     22  NH1 ARG G   2      23.296  36.326  39.946  1.00 81.47 LIG-0.23  N 
ATOM     23  NH2 ARG G   2      23.215  37.397  37.915  1.00 84.93 LIG-0.23  N 
ATOM     24 1HH1 ARG G   2      22.976  36.189  40.733  1.00 81.47 LIG 0.17  HD
ATOM     25 2HH1 ARG G   2      23.998  35.902  39.687  1.00 81.47 LIG 0.17  HD
ATOM     26 2HH2 ARG G   2      23.918  36.967  37.669  1.00 84.93 LIG 0.17  HD
ATOM     27 1HH2 ARG G   2      22.844  37.957  37.378  1.00 84.93 LIG 0.17  HD
ATOM     28 HE   ARG G   2      21.271  38.417  38.921  1.00 80.25 LIG 0.18  HD
ENDBRANCH 19 20
ENDBRANCH 18 19
ENDBRANCH 17 18
ENDBRANCH 6 17
ENDBRANCH 3 6
ENDBRANCH 1 2
BRANCH 1 29
ATOM     29  CB  THR G   3      13.554  35.718  42.442  1.00 68.23 LIG 0.15  C 
ATOM     30  CG2 THR G   3      14.028  35.654  43.882  1.00 68.63 LIG 0.04  C 
BRANCH 29 31
ATOM     31 OG1  THR G   3      12.209  36.213  42.403  1.00 67.51 LIG-0.39  OA
ATOM     32 HG1  THR G   3      11.999  36.510  43.160  1.00 67.51 LIG 0.21  HD
ENDBRANCH 29 31
ENDBRANCH 1 29
BRANCH 1 33
ATOM     33  C   THR G   3      14.682  37.952  42.326  1.00 68.02 LIG 0.24  C 
ATOM     34  N   ALA G   4      13.899  38.954  41.929  1.00 68.86 LIG-0.35  N 
ATOM     35 H    ALA G   4      13.346  38.892  41.274  1.00 68.86 LIG 0.16  HD
ATOM     36 O    THR G   3      15.525  38.062  43.219  1.00 67.54 LIG-0.27  OA
BRANCH 34 37
ATOM     37  CA  ALA G   4      13.908  40.269  42.577  1.00 69.75 LIG 0.17  C 
ATOM     38  CB  ALA G   4      12.920  41.196  41.888  1.00 70.86 LIG 0.04  C 
BRANCH 37 39
ATOM     39  C   ALA G   4      13.608  40.194  44.079  1.00 71.43 LIG 0.24  C 
ATOM     40  N   ALA G   5      12.430  39.675  44.431  1.00 71.85 LIG-0.35  N 
ATOM     41 H    ALA G   5      11.825  39.443  43.865  1.00 71.85 LIG 0.16  HD
ATOM     42 O    ALA G   4      14.438  40.600  44.898  1.00 72.80 LIG-0.27  OA
BRANCH 40 43
ATOM     43  CA  ALA G   5      12.053  39.450  45.831  1.00 72.89 LIG 0.17  C 
ATOM     44  CB  ALA G   5      13.136  38.660  46.554  1.00 72.65 LIG 0.04  C 
BRANCH 43 45
ATOM     45  C   ALA G   5      11.771  40.763  46.569  1.00 72.87 LIG 0.24  C 
ATOM     46  N   THR G   6      12.651  41.753  46.397  1.00 71.86 LIG-0.34  N 
ATOM     47 H    THR G   6      13.359  41.683  45.914  1.00 71.86 LIG 0.16  HD
ATOM     48 O    ALA G   5      10.769  40.870  47.280  1.00 74.40 LIG-0.27  OA
BRANCH 46 49
ATOM     49  CA  THR G   6      12.483  43.073  47.030  1.00 72.17 LIG 0.20  C 
BRANCH 49 50
ATOM     50  CB  THR G   6      11.075  43.667  46.787  1.00 71.29 LIG 0.15  C 
ATOM     51  CG2 THR G   6      10.857  44.915  47.639  1.00 70.64 LIG 0.04  C 
BRANCH 50 52
ATOM     52 OG1  THR G   6      10.914  43.996  45.402  1.00 70.47 LIG-0.39  OA
ATOM     53 HG1  THR G   6      10.927  43.293  44.943  1.00 70.47 LIG 0.21  HD
ENDBRANCH 50 52
ENDBRANCH 49 50
BRANCH 49 54
ATOM     54  C   THR G   6      12.759  43.042  48.540  1.00 73.53 LIG 0.24  C 
ATOM     55  N   ALA G   7      12.292  41.989  49.218  1.00 73.25 LIG-0.35  N 
ATOM     56 H    ALA G   7      11.784  41.390  48.867  1.00 73.25 LIG 0.16  HD
ATOM     57 O    THR G   6      13.375  43.969  49.071  1.00 75.15 LIG-0.27  OA
BRANCH 55 58
ATOM     58  CA  ALA G   7      12.599  41.748  50.635  1.00 74.45 LIG 0.16  C 
ATOM     59  CB  ALA G   7      11.315  41.616  51.443  1.00 73.04 LIG 0.04  C 
BRANCH 58 60
ATOM     60  C   ALA G   7      13.454  40.491  50.796  1.00 76.13 LIG 0.22  C 
ATOM     61 O    ALA G   7      13.738  39.788  49.825  1.00 77.97 LIG-0.29  OA
ENDBRANCH 58 60
ENDBRANCH 55 58
ENDBRANCH 49 54
ENDBRANCH 46 49
ENDBRANCH 43 45
ENDBRANCH 40 43
ENDBRANCH 37 39
ENDBRANCH 34 37
ENDBRANCH 1 33
TORSDOF 22
ENDMDL
MODEL 53
USER: ADFR SOLUTION from run 68
USER: SCORE 16.258960 LL:  -3.811 LR: -14.617 RR:   0.000 FEB:  -8.054
USER: RMSD 3.294386
USER: SEED 67
USER: STATUS no improvement in best in 22 clusters for 5 generations
USER: GENES 24
USER: genes 0 Translation |==|  0.33195 0.50415 0.44698
USER: genes 1 Rotation |==|  0.43688 0.55754 0.56267 0.98865
USER: genes 2 Torsion [CB]-CA--N-[C] |==|  0.27778
USER: genes 3 Torsion [N]-C--CA-[N] |==|  0.53332
USER: genes 4 Torsion [C]-CA--N-[C] |==|  0.76217
USER: genes 5 Torsion [N]-C--CA-[N] |==|  0.26067
USER: genes 6 Torsion [C]-CA--N-[H1] |==|  0.70194
USER: genes 7 Torsion [C]-CA--CB-[CG] |==|  0.49530
USER: genes 8 Torsion [CA]-CB--CG-[CD] |==|  0.94739
USER: genes 9 Torsion [CB]-CG--CD-[NE] |==|  0.39356
USER: genes 10 Torsion [CG]-CD--NE-[CZ] |==|  0.56400
USER: genes 11 Torsion [N]-CA--CB-[OG1] |==|  0.58609
USER: genes 12 Torsion [CA]-CB--OG1-[HG1] |==|  0.73212
USER: genes 13 Torsion [N]-CA--C-[N] |==|  0.47752
USER: genes 14 Torsion [C]-N--CA-[CB] |==|  0.54583
USER: genes 15 Torsion [N]-CA--C-[N] |==|  0.39671
USER: genes 16 Torsion [C]-N--CA-[CB] |==|  0.84444
USER: genes 17 Torsion [N]-CA--C-[N] |==|  0.97751
USER: genes 18 Torsion [C]-N--CA-[CB] |==|  0.86041
USER: genes 19 Torsion [N]-CA--CB-[CG2] |==|  0.56812
USER: genes 20 Torsion [CA]-CB--OG1-[HG1] |==|  0.24757
USER: genes 21 Torsion [N]-CA--C-[N] |==|  0.88502
USER: genes 22 Torsion [C]-N--CA-[C] |==|  0.72681
USER: genes 23 Torsion [N]-CA--C-[O] |==|  0.95095
ROOT
ATOM      1  CA  THR G   3      14.357  38.229  42.089  1.00 68.23 LIG 0.20  C 
ENDROOT
BRANCH 1 2
ATOM      2  N   THR G   3      15.768  38.185  41.720  1.00 68.42 LIG-0.34  N 
ATOM      3  C   ARG G   2      16.201  37.723  40.550  1.00 70.38 LIG 0.24  C 
ATOM      4 O    ARG G   2      15.469  37.187  39.710  1.00 69.46 LIG-0.27  OA
ATOM      5 H    THR G   3      16.294  38.486  42.330  1.00 68.42 LIG 0.16  HD
BRANCH 3 6
ATOM      6  CA  ARG G   2      17.699  37.863  40.300  1.00 72.62 LIG 0.18  C 
BRANCH 6 7
ATOM      7  N   ARG G   2      17.978  37.585  38.894  1.00 74.86 LIG-0.35  N 
ATOM      8  C   ALA G   1      18.172  36.349  38.441  1.00 76.29 LIG 0.25  C 
ATOM      9 O    ALA G   1      18.309  35.366  39.176  1.00 75.70 LIG-0.27  OA
ATOM     10 H    ARG G   2      18.004  38.286  38.395  1.00 74.86 LIG 0.16  HD
BRANCH 8 11
ATOM     11  CA  ALA G   1      18.231  36.195  36.929  1.00 78.97 LIG 0.27  C 
ATOM     12  CB  ALA G   1      17.576  34.881  36.516  1.00 79.33 LIG 0.05  C 
BRANCH 11 13
ATOM     13  N   ALA G   1      19.640  36.254  36.452  1.00 81.42 LIG-0.07  N 
ATOM     14 H3   ALA G   1      19.791  35.584  35.885  1.00 81.42 LIG 0.28  HD
ATOM     15 H2   ALA G   1      20.192  36.183  37.146  1.00 81.42 LIG 0.28  HD
ATOM     16 H1   ALA G   1      19.782  37.029  36.038  1.00 81.42 LIG 0.28  HD
ENDBRANCH 11 13
ENDBRANCH 8 11
ENDBRANCH 6 7
BRANCH 6 17
ATOM     17  CB  ARG G   2      18.189  39.262  40.688  1.00 73.45 LIG 0.04  C 
BRANCH 17 18
ATOM     18  CG  ARG G   2      19.684  39.446  40.498  1.00 75.79 LIG 0.02  C 
BRANCH 18 19
ATOM     19  CD  ARG G   2      20.425  38.120  40.415  1.00 77.52 LIG 0.14  C 
BRANCH 19 20
ATOM     20  NE  ARG G   2      21.504  38.173  39.426  1.00 80.25 LIG-0.23  N 
ATOM     21  CZ  ARG G   2      22.043  37.120  38.804  1.00 82.01 LIG 0.67  C 
ATOM     22  NH1 ARG G   2      21.625  35.875  39.045  1.00 81.47 LIG-0.23  N 
ATOM     23  NH2 ARG G   2      23.025  37.312  37.926  1.00 84.93 LIG-0.23  N 
ATOM     24 1HH1 ARG G   2      20.994  35.736  39.613  1.00 81.47 LIG 0.17  HD
ATOM     25 2HH1 ARG G   2      21.986  35.213  38.633  1.00 81.47 LIG 0.17  HD
ATOM     26 2HH2 ARG G   2      23.378  36.641  37.521  1.00 84.93 LIG 0.17  HD
ATOM     27 1HH2 ARG G   2      23.307  38.108  37.764  1.00 84.93 LIG 0.17  HD
ATOM     28 HE   ARG G   2      21.818  38.950  39.228  1.00 80.25 LIG 0.18  HD
ENDBRANCH 19 20
ENDBRANCH 18 19
ENDBRANCH 17 18
ENDBRANCH 6 17
ENDBRANCH 3 6
ENDBRANCH 1 2
BRANCH 1 29
ATOM     29  CB  THR G   3      13.964  37.047  43.008  1.00 68.23 LIG 0.15  C 
ATOM     30  CG2 THR G   3      14.156  37.413  44.468  1.00 68.63 LIG 0.04  C 
BRANCH 29 31
ATOM     31 OG1  THR G   3      12.596  36.681  42.783  1.00 67.51 LIG-0.39  OA
ATOM     32 HG1  THR G   3      12.109  37.054  43.356  1.00 67.51 LIG 0.21  HD
ENDBRANCH 29 31
ENDBRANCH 1 29
BRANCH 1 33
ATOM     33  C   THR G   3      14.034  39.542  42.794  1.00 68.02 LIG 0.24  C 
ATOM     34  N   ALA G   4      12.744  39.771  43.030  1.00 68.86 LIG-0.35  N 
ATOM     35 H    ALA G   4      12.114  39.248  42.766  1.00 68.86 LIG 0.16  HD
ATOM     36 O    THR G   3      14.931  40.326  43.110  1.00 67.54 LIG-0.27  OA
BRANCH 34 37
ATOM     37  CA  ALA G   4      12.270  40.945  43.769  1.00 69.75 LIG 0.17  C 
ATOM     38  CB  ALA G   4      10.837  40.731  44.224  1.00 70.86 LIG 0.04  C 
BRANCH 37 39
ATOM     39  C   ALA G   4      13.163  41.294  44.966  1.00 71.43 LIG 0.24  C 
ATOM     40  N   ALA G   5      13.346  42.591  45.221  1.00 71.85 LIG-0.35  N 
ATOM     41 H    ALA G   5      13.042  43.220  44.720  1.00 71.85 LIG 0.16  HD
ATOM     42 O    ALA G   4      13.671  40.395  45.643  1.00 72.80 LIG-0.27  OA
BRANCH 40 43
ATOM     43  CA  ALA G   5      14.092  43.068  46.391  1.00 72.89 LIG 0.17  C 
ATOM     44  CB  ALA G   5      13.491  42.504  47.672  1.00 72.65 LIG 0.04  C 
BRANCH 43 45
ATOM     45  C   ALA G   5      15.582  42.720  46.304  1.00 72.87 LIG 0.24  C 
ATOM     46  N   THR G   6      15.957  41.916  45.306  1.00 71.86 LIG-0.34  N 
ATOM     47 H    THR G   6      15.411  41.581  44.733  1.00 71.86 LIG 0.16  HD
ATOM     48 O    ALA G   5      16.373  43.178  47.132  1.00 74.40 LIG-0.27  OA
BRANCH 46 49
ATOM     49  CA  THR G   6      17.362  41.526  45.096  1.00 72.17 LIG 0.20  C 
BRANCH 49 50
ATOM     50  CB  THR G   6      18.316  42.744  45.089  1.00 71.29 LIG 0.15  C 
ATOM     51  CG2 THR G   6      19.588  42.433  44.304  1.00 70.64 LIG 0.04  C 
BRANCH 50 52
ATOM     52 OG1  THR G   6      17.659  43.877  44.508  1.00 70.47 LIG-0.39  OA
ATOM     53 HG1  THR G   6      17.255  44.305  45.108  1.00 70.47 LIG 0.21  HD
ENDBRANCH 50 52
ENDBRANCH 49 50
BRANCH 49 54
ATOM     54  C   THR G   6      17.853  40.512  46.140  1.00 73.53 LIG 0.24  C 
ATOM     55  N   ALA G   7      17.475  40.716  47.406  1.00 73.25 LIG-0.35  N 
ATOM     56 H    ALA G   7      17.052  41.419  47.664  1.00 73.25 LIG 0.16  HD
ATOM     57 O    THR G   6      18.574  39.574  45.792  1.00 75.15 LIG-0.27  OA
BRANCH 55 58
ATOM     58  CA  ALA G   7      17.745  39.758  48.487  1.00 74.45 LIG 0.16  C 
ATOM     59  CB  ALA G   7      18.156  40.491  49.757  1.00 73.04 LIG 0.04  C 
BRANCH 58 60
ATOM     60  C   ALA G   7      16.518  38.888  48.756  1.00 76.13 LIG 0.22  C 
ATOM     61 O    ALA G   7      15.401  39.223  48.358  1.00 77.97 LIG-0.29  OA
ENDBRANCH 58 60
ENDBRANCH 55 58
ENDBRANCH 49 54
ENDBRANCH 46 49
ENDBRANCH 43 45
ENDBRANCH 40 43
ENDBRANCH 37 39
ENDBRANCH 34 37
ENDBRANCH 1 33
TORSDOF 22
ENDMDL
MODEL 54
USER: ADFR SOLUTION from run 162
USER: SCORE 16.448293 LL:  -4.580 LR: -14.591 RR:   0.000 FEB:  -8.029
USER: RMSD 3.282106
USER: SEED 161
USER: STATUS searching
USER: GENES 24
USER: genes 0 Translation |==|  0.33313 0.50405 0.44682
USER: genes 1 Rotation |==|  0.45041 0.55917 0.56417 0.98982
USER: genes 2 Torsion [CB]-CA--N-[C] |==|  0.26532
USER: genes 3 Torsion [N]-C--CA-[N] |==|  0.53332
USER: genes 4 Torsion [C]-CA--N-[C] |==|  0.75854
USER: genes 5 Torsion [N]-C--CA-[N] |==|  0.26322
USER: genes 6 Torsion [C]-CA--N-[H1] |==|  0.71776
USER: genes 7 Torsion [C]-CA--CB-[CG] |==|  0.48092
USER: genes 8 Torsion [CA]-CB--CG-[CD] |==|  0.96200
USER: genes 9 Torsion [CB]-CG--CD-[NE] |==|  0.38224
USER: genes 10 Torsion [CG]-CD--NE-[CZ] |==|  0.56122
USER: genes 11 Torsion [N]-CA--CB-[OG1] |==|  0.58480
USER: genes 12 Torsion [CA]-CB--OG1-[HG1] |==|  0.76215
USER: genes 13 Torsion [N]-CA--C-[N] |==|  0.44262
USER: genes 14 Torsion [C]-N--CA-[CB] |==|  0.55564
USER: genes 15 Torsion [N]-CA--C-[N] |==|  0.37831
USER: genes 16 Torsion [C]-N--CA-[CB] |==|  0.87616
USER: genes 17 Torsion [N]-CA--C-[N] |==|  0.91300
USER: genes 18 Torsion [C]-N--CA-[CB] |==|  0.19257
USER: genes 19 Torsion [N]-CA--CB-[CG2] |==|  0.71591
USER: genes 20 Torsion [CA]-CB--OG1-[HG1] |==|  0.00531
USER: genes 21 Torsion [N]-CA--C-[N] |==|  0.70751
USER: genes 22 Torsion [C]-N--CA-[C] |==|  0.56078
USER: genes 23 Torsion [N]-CA--C-[O] |==|  0.99937
ROOT
ATOM      1  CA  THR G   3      14.384  38.227  42.086  1.00 68.23 LIG 0.20  C 
ENDROOT
BRANCH 1 2
ATOM      2  N   THR G   3      15.790  38.201  41.696  1.00 68.42 LIG-0.34  N 
ATOM      3  C   ARG G   2      16.214  37.721  40.530  1.00 70.38 LIG 0.24  C 
ATOM      4 O    ARG G   2      15.479  37.153  39.713  1.00 69.46 LIG-0.27  OA
ATOM      5 H    THR G   3      16.319  38.526  42.291  1.00 68.42 LIG 0.16  HD
BRANCH 3 6
ATOM      6  CA  ARG G   2      17.705  37.883  40.254  1.00 72.62 LIG 0.18  C 
BRANCH 6 7
ATOM      7  N   ARG G   2      17.968  37.579  38.850  1.00 74.86 LIG-0.35  N 
ATOM      8  C   ALA G   1      18.203  36.340  38.425  1.00 76.29 LIG 0.25  C 
ATOM      9 O    ALA G   1      18.394  35.383  39.183  1.00 75.70 LIG-0.27  OA
ATOM     10 H    ARG G   2      17.956  38.266  38.332  1.00 74.86 LIG 0.16  HD
BRANCH 8 11
ATOM     11  CA  ALA G   1      18.239  36.148  36.917  1.00 78.97 LIG 0.27  C 
ATOM     12  CB  ALA G   1      17.610  34.808  36.551  1.00 79.33 LIG 0.05  C 
BRANCH 11 13
ATOM     13  N   ALA G   1      19.638  36.228  36.413  1.00 81.42 LIG-0.07  N 
ATOM     14 H3   ALA G   1      19.770  35.597  35.799  1.00 81.42 LIG 0.28  HD
ATOM     15 H2   ALA G   1      20.205  36.107  37.088  1.00 81.42 LIG 0.28  HD
ATOM     16 H1   ALA G   1      19.777  37.029  36.050  1.00 81.42 LIG 0.28  HD
ENDBRANCH 11 13
ENDBRANCH 8 11
ENDBRANCH 6 7
BRANCH 6 17
ATOM     17  CB  ARG G   2      18.174  39.299  40.604  1.00 73.45 LIG 0.04  C 
BRANCH 17 18
ATOM     18  CG  ARG G   2      19.680  39.471  40.506  1.00 75.79 LIG 0.02  C 
BRANCH 18 19
ATOM     19  CD  ARG G   2      20.410  38.140  40.411  1.00 77.52 LIG 0.14  C 
BRANCH 19 20
ATOM     20  NE  ARG G   2      21.485  38.191  39.417  1.00 80.25 LIG-0.23  N 
ATOM     21  CZ  ARG G   2      22.025  37.135  38.800  1.00 82.01 LIG 0.67  C 
ATOM     22  NH1 ARG G   2      21.613  35.891  39.052  1.00 81.47 LIG-0.23  N 
ATOM     23  NH2 ARG G   2      23.002  37.326  37.917  1.00 84.93 LIG-0.23  N 
ATOM     24 1HH1 ARG G   2      20.985  35.753  39.623  1.00 81.47 LIG 0.17  HD
ATOM     25 2HH1 ARG G   2      21.975  35.226  38.642  1.00 81.47 LIG 0.17  HD
ATOM     26 2HH2 ARG G   2      23.355  36.653  37.514  1.00 84.93 LIG 0.17  HD
ATOM     27 1HH2 ARG G   2      23.280  38.122  37.748  1.00 84.93 LIG 0.17  HD
ATOM     28 HE   ARG G   2      21.794  38.967  39.213  1.00 80.25 LIG 0.18  HD
ENDBRANCH 19 20
ENDBRANCH 18 19
ENDBRANCH 17 18
ENDBRANCH 6 17
ENDBRANCH 3 6
ENDBRANCH 1 2
BRANCH 1 29
ATOM     29  CB  THR G   3      14.000  36.999  42.945  1.00 68.23 LIG 0.15  C 
ATOM     30  CG2 THR G   3      14.223  37.282  44.419  1.00 68.63 LIG 0.04  C 
BRANCH 29 31
ATOM     31 OG1  THR G   3      12.626  36.654  42.728  1.00 67.51 LIG-0.39  OA
ATOM     32 HG1  THR G   3      12.139  37.111  43.236  1.00 67.51 LIG 0.21  HD
ENDBRANCH 29 31
ENDBRANCH 1 29
BRANCH 1 33
ATOM     33  C   THR G   3      14.073  39.501  42.864  1.00 68.02 LIG 0.24  C 
ATOM     34  N   ALA G   4      12.790  39.856  42.906  1.00 68.86 LIG-0.35  N 
ATOM     35 H    ALA G   4      12.169  39.436  42.486  1.00 68.86 LIG 0.16  HD
ATOM     36 O    THR G   3      14.973  40.145  43.407  1.00 67.54 LIG-0.27  OA
BRANCH 34 37
ATOM     37  CA  ALA G   4      12.312  41.007  43.677  1.00 69.75 LIG 0.17  C 
ATOM     38  CB  ALA G   4      10.821  40.877  43.937  1.00 70.86 LIG 0.04  C 
BRANCH 37 39
ATOM     39  C   ALA G   4      13.069  41.193  44.998  1.00 71.43 LIG 0.24  C 
ATOM     40  N   ALA G   5      13.431  42.439  45.313  1.00 71.85 LIG-0.35  N 
ATOM     41 H    ALA G   5      13.313  43.113  44.792  1.00 71.85 LIG 0.16  HD
ATOM     42 O    ALA G   4      13.314  40.218  45.715  1.00 72.80 LIG-0.27  OA
BRANCH 40 43
ATOM     43  CA  ALA G   5      14.070  42.776  46.590  1.00 72.89 LIG 0.17  C 
ATOM     44  CB  ALA G   5      13.358  42.081  47.742  1.00 72.65 LIG 0.04  C 
BRANCH 43 45
ATOM     45  C   ALA G   5      15.562  42.425  46.597  1.00 72.87 LIG 0.24  C 
ATOM     46  N   THR G   6      15.938  41.375  45.862  1.00 71.86 LIG-0.34  N 
ATOM     47 H    THR G   6      15.392  40.891  45.408  1.00 71.86 LIG 0.16  HD
ATOM     48 O    ALA G   5      16.352  43.100  47.260  1.00 74.40 LIG-0.27  OA
BRANCH 46 49
ATOM     49  CA  THR G   6      17.345  40.949  45.763  1.00 72.17 LIG 0.20  C 
BRANCH 49 50
ATOM     50  CB  THR G   6      17.874  40.355  47.089  1.00 71.29 LIG 0.15  C 
ATOM     51  CG2 THR G   6      18.743  41.368  47.831  1.00 70.64 LIG 0.04  C 
BRANCH 50 52
ATOM     52 OG1  THR G   6      16.777  39.963  47.923  1.00 70.47 LIG-0.39  OA
ATOM     53 HG1  THR G   6      16.054  40.107  47.521  1.00 70.47 LIG 0.21  HD
ENDBRANCH 50 52
ENDBRANCH 49 50
BRANCH 49 54
ATOM     54  C   THR G   6      17.575  39.935  44.633  1.00 73.53 LIG 0.24  C 
ATOM     55  N   ALA G   7      17.761  38.661  44.993  1.00 73.25 LIG-0.35  N 
ATOM     56 H    ALA G   7      17.839  38.409  45.811  1.00 73.25 LIG 0.16  HD
ATOM     57 O    THR G   6      17.595  40.317  43.461  1.00 75.15 LIG-0.27  OA
BRANCH 55 58
ATOM     58  CA  ALA G   7      17.849  37.560  44.024  1.00 74.45 LIG 0.16  C 
ATOM     59  CB  ALA G   7      19.237  37.508  43.401  1.00 73.04 LIG 0.04  C 
BRANCH 58 60
ATOM     60  C   ALA G   7      17.522  36.225  44.693  1.00 76.13 LIG 0.22  C 
ATOM     61 O    ALA G   7      17.237  36.167  45.890  1.00 77.97 LIG-0.29  OA
ENDBRANCH 58 60
ENDBRANCH 55 58
ENDBRANCH 49 54
ENDBRANCH 46 49
ENDBRANCH 43 45
ENDBRANCH 40 43
ENDBRANCH 37 39
ENDBRANCH 34 37
ENDBRANCH 1 33
TORSDOF 22
ENDMDL
MODEL 55
USER: ADFR SOLUTION from run 63
USER: SCORE 15.013195 LL:  -2.870 LR: -14.592 RR:   0.000 FEB:  -8.030
USER: RMSD 3.589269
USER: SEED 62
USER: STATUS no improvement in best in 8 clusters for 5 generations
USER: GENES 24
USER: genes 0 Translation |==|  0.33357 0.49055 0.44617
USER: genes 1 Rotation |==|  0.51583 0.54864 0.57318 0.99196
USER: genes 2 Torsion [CB]-CA--N-[C] |==|  0.24494
USER: genes 3 Torsion [N]-C--CA-[N] |==|  0.51092
USER: genes 4 Torsion [C]-CA--N-[C] |==|  0.77605
USER: genes 5 Torsion [N]-C--CA-[N] |==|  0.27898
USER: genes 6 Torsion [C]-CA--N-[H1] |==|  0.69482
USER: genes 7 Torsion [C]-CA--CB-[CG] |==|  0.61876
USER: genes 8 Torsion [CA]-CB--CG-[CD] |==|  0.61349
USER: genes 9 Torsion [CB]-CG--CD-[NE] |==|  0.43440
USER: genes 10 Torsion [CG]-CD--NE-[CZ] |==|  0.27916
USER: genes 11 Torsion [N]-CA--CB-[OG1] |==|  0.69778
USER: genes 12 Torsion [CA]-CB--OG1-[HG1] |==|  0.49167
USER: genes 13 Torsion [N]-CA--C-[N] |==|  0.41574
USER: genes 14 Torsion [C]-N--CA-[CB] |==|  0.53397
USER: genes 15 Torsion [N]-CA--C-[N] |==|  0.45569
USER: genes 16 Torsion [C]-N--CA-[CB] |==|  0.57577
USER: genes 17 Torsion [N]-CA--C-[N] |==|  0.38504
USER: genes 18 Torsion [C]-N--CA-[CB] |==|  0.20687
USER: genes 19 Torsion [N]-CA--CB-[CG2] |==|  0.09684
USER: genes 20 Torsion [CA]-CB--OG1-[HG1] |==|  0.21977
USER: genes 21 Torsion [N]-CA--C-[N] |==|  0.87590
USER: genes 22 Torsion [C]-N--CA-[C] |==|  0.61537
USER: genes 23 Torsion [N]-CA--C-[O] |==|  0.01826
ROOT
ATOM      1  CA  THR G   3      14.393  37.984  42.073  1.00 68.23 LIG 0.20  C 
ENDROOT
BRANCH 1 2
ATOM      2  N   THR G   3      15.801  38.072  41.698  1.00 68.42 LIG-0.34  N 
ATOM      3  C   ARG G   2      16.251  37.782  40.480  1.00 70.38 LIG 0.24  C 
ATOM      4 O    ARG G   2      15.544  37.308  39.583  1.00 69.46 LIG-0.27  OA
ATOM      5 H    THR G   3      16.313  38.328  42.340  1.00 68.42 LIG 0.16  HD
BRANCH 3 6
ATOM      6  CA  ARG G   2      17.735  38.042  40.246  1.00 72.62 LIG 0.18  C 
BRANCH 6 7
ATOM      7  N   ARG G   2      18.055  37.767  38.848  1.00 74.86 LIG-0.35  N 
ATOM      8  C   ALA G   1      18.262  36.531  38.399  1.00 76.29 LIG 0.25  C 
ATOM      9 O    ALA G   1      18.376  35.547  39.136  1.00 75.70 LIG-0.27  OA
ATOM     10 H    ARG G   2      18.097  38.468  38.352  1.00 74.86 LIG 0.16  HD
BRANCH 8 11
ATOM     11  CA  ALA G   1      18.366  36.380  36.890  1.00 78.97 LIG 0.27  C 
ATOM     12  CB  ALA G   1      17.583  35.152  36.438  1.00 79.33 LIG 0.05  C 
BRANCH 11 13
ATOM     13  N   ALA G   1      19.791  36.279  36.470  1.00 81.42 LIG-0.07  N 
ATOM     14 H3   ALA G   1      19.894  35.577  35.933  1.00 81.42 LIG 0.28  HD
ATOM     15 H2   ALA G   1      20.306  36.179  37.190  1.00 81.42 LIG 0.28  HD
ATOM     16 H1   ALA G   1      20.027  37.020  36.038  1.00 81.42 LIG 0.28  HD
ENDBRANCH 11 13
ENDBRANCH 8 11
ENDBRANCH 6 7
BRANCH 6 17
ATOM     17  CB  ARG G   2      18.101  39.483  40.617  1.00 73.45 LIG 0.04  C 
BRANCH 17 18
ATOM     18  CG  ARG G   2      19.031  40.141  39.612  1.00 75.79 LIG 0.02  C 
BRANCH 18 19
ATOM     19  CD  ARG G   2      20.111  40.976  40.282  1.00 77.52 LIG 0.14  C 
BRANCH 19 20
ATOM     20  NE  ARG G   2      21.279  41.135  39.412  1.00 80.25 LIG-0.23  N 
ATOM     21  CZ  ARG G   2      21.560  42.214  38.676  1.00 82.01 LIG 0.67  C 
ATOM     22  NH1 ARG G   2      20.762  43.285  38.670  1.00 81.47 LIG-0.23  N 
ATOM     23  NH2 ARG G   2      22.657  42.224  37.924  1.00 84.93 LIG-0.23  N 
ATOM     24 1HH1 ARG G   2      20.047  43.291  39.149  1.00 81.47 LIG 0.17  HD
ATOM     25 2HH1 ARG G   2      20.963  43.969  38.189  1.00 81.47 LIG 0.17  HD
ATOM     26 2HH2 ARG G   2      22.846  42.914  37.447  1.00 84.93 LIG 0.17  HD
ATOM     27 1HH2 ARG G   2      23.178  41.539  37.915  1.00 84.93 LIG 0.17  HD
ATOM     28 HE   ARG G   2      21.831  40.477  39.372  1.00 80.25 LIG 0.18  HD
ENDBRANCH 19 20
ENDBRANCH 18 19
ENDBRANCH 17 18
ENDBRANCH 6 17
ENDBRANCH 3 6
ENDBRANCH 1 2
BRANCH 1 29
ATOM     29  CB  THR G   3      14.016  36.570  42.574  1.00 68.23 LIG 0.15  C 
ATOM     30  CG2 THR G   3      13.280  36.646  43.899  1.00 68.63 LIG 0.04  C 
BRANCH 29 31
ATOM     31 OG1  THR G   3      13.192  35.907  41.607  1.00 67.51 LIG-0.39  OA
ATOM     32 HG1  THR G   3      13.027  35.126  41.868  1.00 67.51 LIG 0.21  HD
ENDBRANCH 29 31
ENDBRANCH 1 29
BRANCH 1 33
ATOM     33  C   THR G   3      14.070  39.005  43.158  1.00 68.02 LIG 0.24  C 
ATOM     34  N   ALA G   4      12.825  39.478  43.155  1.00 68.86 LIG-0.35  N 
ATOM     35 H    ALA G   4      12.241  39.272  42.558  1.00 68.86 LIG 0.16  HD
ATOM     36 O    THR G   3      14.927  39.355  43.972  1.00 67.54 LIG-0.27  OA
BRANCH 34 37
ATOM     37  CA  ALA G   4      12.327  40.403  44.177  1.00 69.75 LIG 0.17  C 
ATOM     38  CB  ALA G   4      10.815  40.522  44.082  1.00 70.86 LIG 0.04  C 
BRANCH 37 39
ATOM     39  C   ALA G   4      12.741  39.998  45.598  1.00 71.43 LIG 0.24  C 
ATOM     40  N   ALA G   5      12.624  40.930  46.546  1.00 71.85 LIG-0.35  N 
ATOM     41 H    ALA G   5      12.390  41.742  46.387  1.00 71.85 LIG 0.16  HD
ATOM     42 O    ALA G   4      13.156  38.857  45.821  1.00 72.80 LIG-0.27  OA
BRANCH 40 43
ATOM     43  CA  ALA G   5      12.887  40.652  47.962  1.00 72.89 LIG 0.17  C 
ATOM     44  CB  ALA G   5      12.079  41.590  48.849  1.00 72.65 LIG 0.04  C 
BRANCH 43 45
ATOM     45  C   ALA G   5      12.596  39.193  48.326  1.00 72.87 LIG 0.24  C 
ATOM     46  N   THR G   6      13.467  38.588  49.139  1.00 71.86 LIG-0.34  N 
ATOM     47 H    THR G   6      14.174  38.968  49.447  1.00 71.86 LIG 0.16  HD
ATOM     48 O    ALA G   5      11.595  38.631  47.875  1.00 74.40 LIG-0.27  OA
BRANCH 46 49
ATOM     49  CA  THR G   6      13.289  37.195  49.585  1.00 72.17 LIG 0.20  C 
BRANCH 49 50
ATOM     50  CB  THR G   6      13.606  36.174  48.468  1.00 71.29 LIG 0.15  C 
ATOM     51  CG2 THR G   6      14.748  36.671  47.586  1.00 70.64 LIG 0.04  C 
BRANCH 50 52
ATOM     52 OG1  THR G   6      13.960  34.911  49.045  1.00 70.47 LIG-0.39  OA
ATOM     53 HG1  THR G   6      13.263  34.505  49.280  1.00 70.47 LIG 0.21  HD
ENDBRANCH 50 52
ENDBRANCH 49 50
BRANCH 49 54
ATOM     54  C   THR G   6      14.133  36.862  50.824  1.00 73.53 LIG 0.24  C 
ATOM     55  N   ALA G   7      15.402  37.282  50.821  1.00 73.25 LIG-0.35  N 
ATOM     56 H    ALA G   7      15.777  37.646  50.137  1.00 73.25 LIG 0.16  HD
ATOM     57 O    THR G   6      13.635  36.222  51.752  1.00 75.15 LIG-0.27  OA
BRANCH 55 58
ATOM     58  CA  ALA G   7      16.288  37.165  51.988  1.00 74.45 LIG 0.16  C 
ATOM     59  CB  ALA G   7      17.197  35.953  51.846  1.00 73.04 LIG 0.04  C 
BRANCH 58 60
ATOM     60  C   ALA G   7      17.124  38.433  52.160  1.00 76.13 LIG 0.22  C 
ATOM     61 O    ALA G   7      16.926  39.425  51.457  1.00 77.97 LIG-0.29  OA
ENDBRANCH 58 60
ENDBRANCH 55 58
ENDBRANCH 49 54
ENDBRANCH 46 49
ENDBRANCH 43 45
ENDBRANCH 40 43
ENDBRANCH 37 39
ENDBRANCH 34 37
ENDBRANCH 1 33
TORSDOF 22
ENDMDL
MODEL 56
USER: ADFR SOLUTION from run 97
USER: SCORE 16.636540 LL:  -3.881 LR: -14.590 RR:   0.000 FEB:  -8.027
USER: RMSD 4.002452
USER: SEED 96
USER: STATUS searching
USER: GENES 24
USER: genes 0 Translation |==|  0.32341 0.45822 0.48277
USER: genes 1 Rotation |==|  0.72418 0.54124 0.54247 0.94299
USER: genes 2 Torsion [CB]-CA--N-[C] |==|  0.15339
USER: genes 3 Torsion [N]-C--CA-[N] |==|  0.47470
USER: genes 4 Torsion [C]-CA--N-[C] |==|  0.72795
USER: genes 5 Torsion [N]-C--CA-[N] |==|  0.30971
USER: genes 6 Torsion [C]-CA--N-[H1] |==|  0.84602
USER: genes 7 Torsion [C]-CA--CB-[CG] |==|  0.51091
USER: genes 8 Torsion [CA]-CB--CG-[CD] |==|  0.32085
USER: genes 9 Torsion [CB]-CG--CD-[NE] |==|  0.55156
USER: genes 10 Torsion [CG]-CD--NE-[CZ] |==|  0.55303
USER: genes 11 Torsion [N]-CA--CB-[OG1] |==|  0.55049
USER: genes 12 Torsion [CA]-CB--OG1-[HG1] |==|  0.84170
USER: genes 13 Torsion [N]-CA--C-[N] |==|  0.54795
USER: genes 14 Torsion [C]-N--CA-[CB] |==|  0.83297
USER: genes 15 Torsion [N]-CA--C-[N] |==|  0.15797
USER: genes 16 Torsion [C]-N--CA-[CB] |==|  0.86608
USER: genes 17 Torsion [N]-CA--C-[N] |==|  0.35685
USER: genes 18 Torsion [C]-N--CA-[CB] |==|  0.84998
USER: genes 19 Torsion [N]-CA--CB-[CG2] |==|  0.56275
USER: genes 20 Torsion [CA]-CB--OG1-[HG1] |==|  0.50162
USER: genes 21 Torsion [N]-CA--C-[N] |==|  0.90437
USER: genes 22 Torsion [C]-N--CA-[C] |==|  0.69948
USER: genes 23 Torsion [N]-CA--C-[O] |==|  0.99779
ROOT
ATOM      1  CA  THR G   3      14.165  37.402  42.814  1.00 68.23 LIG 0.20  C 
ENDROOT
BRANCH 1 2
ATOM      2  N   THR G   3      15.547  37.585  42.384  1.00 68.42 LIG-0.34  N 
ATOM      3  C   ARG G   2      15.909  37.660  41.105  1.00 70.38 LIG 0.24  C 
ATOM      4 O    ARG G   2      15.133  37.473  40.161  1.00 69.46 LIG-0.27  OA
ATOM      5 H    THR G   3      16.107  37.640  43.034  1.00 68.42 LIG 0.16  HD
BRANCH 3 6
ATOM      6  CA  ARG G   2      17.381  37.966  40.854  1.00 72.62 LIG 0.18  C 
BRANCH 6 7
ATOM      7  N   ARG G   2      17.669  37.802  39.432  1.00 74.86 LIG-0.35  N 
ATOM      8  C   ALA G   1      18.210  36.689  38.942  1.00 76.29 LIG 0.25  C 
ATOM      9 O    ALA G   1      18.672  35.787  39.647  1.00 75.70 LIG-0.27  OA
ATOM     10 H    ARG G   2      17.458  38.483  38.949  1.00 74.86 LIG 0.16  HD
BRANCH 8 11
ATOM     11  CA  ALA G   1      18.246  36.577  37.426  1.00 78.97 LIG 0.27  C 
ATOM     12  CB  ALA G   1      17.589  35.273  36.988  1.00 79.33 LIG 0.05  C 
BRANCH 11 13
ATOM     13  N   ALA G   1      19.647  36.654  36.928  1.00 81.42 LIG-0.07  N 
ATOM     14 H3   ALA G   1      19.647  36.653  36.038  1.00 81.42 LIG 0.28  HD
ATOM     15 H2   ALA G   1      20.106  35.952  37.225  1.00 81.42 LIG 0.28  HD
ATOM     16 H1   ALA G   1      20.027  37.403  37.224  1.00 81.42 LIG 0.28  HD
ENDBRANCH 11 13
ENDBRANCH 8 11
ENDBRANCH 6 7
BRANCH 6 17
ATOM     17  CB  ARG G   2      17.732  39.382  41.323  1.00 73.45 LIG 0.04  C 
BRANCH 17 18
ATOM     18  CG  ARG G   2      19.165  39.778  41.011  1.00 75.79 LIG 0.02  C 
BRANCH 18 19
ATOM     19  CD  ARG G   2      19.245  40.933  40.025  1.00 77.52 LIG 0.14  C 
BRANCH 19 20
ATOM     20  NE  ARG G   2      20.571  41.016  39.407  1.00 80.25 LIG-0.23  N 
ATOM     21  CZ  ARG G   2      21.079  42.090  38.795  1.00 82.01 LIG 0.67  C 
ATOM     22  NH1 ARG G   2      20.388  43.227  38.689  1.00 81.47 LIG-0.23  N 
ATOM     23  NH2 ARG G   2      22.301  42.025  38.272  1.00 84.93 LIG-0.23  N 
ATOM     24 1HH1 ARG G   2      19.595  43.281  39.019  1.00 81.47 LIG 0.17  HD
ATOM     25 2HH1 ARG G   2      20.735  43.906  38.290  1.00 81.47 LIG 0.17  HD
ATOM     26 2HH2 ARG G   2      22.636  42.711  37.876  1.00 84.93 LIG 0.17  HD
ATOM     27 1HH2 ARG G   2      22.756  41.298  38.329  1.00 84.93 LIG 0.17  HD
ATOM     28 HE   ARG G   2      21.065  40.312  39.442  1.00 80.25 LIG 0.18  HD
ENDBRANCH 19 20
ENDBRANCH 18 19
ENDBRANCH 17 18
ENDBRANCH 6 17
ENDBRANCH 3 6
ENDBRANCH 1 2
BRANCH 1 29
ATOM     29  CB  THR G   3      13.523  36.148  42.176  1.00 68.23 LIG 0.15  C 
ATOM     30  CG2 THR G   3      14.007  34.885  42.864  1.00 68.63 LIG 0.04  C 
BRANCH 29 31
ATOM     31 OG1  THR G   3      12.094  36.224  42.267  1.00 67.51 LIG-0.39  OA
ATOM     32 HG1  THR G   3      11.869  36.310  43.071  1.00 67.51 LIG 0.21  HD
ENDBRANCH 29 31
ENDBRANCH 1 29
BRANCH 1 33
ATOM     33  C   THR G   3      14.094  37.285  44.333  1.00 68.02 LIG 0.24  C 
ATOM     34  N   ALA G   4      12.969  36.767  44.822  1.00 68.86 LIG-0.35  N 
ATOM     35 H    ALA G   4      12.295  36.553  44.334  1.00 68.86 LIG 0.16  HD
ATOM     36 O    THR G   3      15.033  37.658  45.040  1.00 67.54 LIG-0.27  OA
BRANCH 34 37
ATOM     37  CA  ALA G   4      12.772  36.511  46.252  1.00 69.75 LIG 0.17  C 
ATOM     38  CB  ALA G   4      13.817  35.530  46.755  1.00 70.86 LIG 0.04  C 
BRANCH 37 39
ATOM     39  C   ALA G   4      12.796  37.793  47.094  1.00 71.43 LIG 0.24  C 
ATOM     40  N   ALA G   5      11.919  38.744  46.766  1.00 71.85 LIG-0.35  N 
ATOM     41 H    ALA G   5      11.397  38.693  46.085  1.00 71.85 LIG 0.16  HD
ATOM     42 O    ALA G   4      13.599  37.908  48.025  1.00 72.80 LIG-0.27  OA
BRANCH 40 43
ATOM     43  CA  ALA G   5      11.763  39.976  47.546  1.00 72.89 LIG 0.17  C 
ATOM     44  CB  ALA G   5      11.645  39.656  49.031  1.00 72.65 LIG 0.04  C 
BRANCH 43 45
ATOM     45  C   ALA G   5      12.912  40.960  47.304  1.00 72.87 LIG 0.24  C 
ATOM     46  N   THR G   6      12.577  42.212  46.978  1.00 71.86 LIG-0.34  N 
ATOM     47 H    THR G   6      11.765  42.479  46.887  1.00 71.86 LIG 0.16  HD
ATOM     48 O    ALA G   5      14.081  40.584  47.413  1.00 74.40 LIG-0.27  OA
BRANCH 46 49
ATOM     49  CA  THR G   6      13.585  43.260  46.744  1.00 72.17 LIG 0.20  C 
BRANCH 49 50
ATOM     50  CB  THR G   6      14.566  43.408  47.930  1.00 71.29 LIG 0.15  C 
ATOM     51  CG2 THR G   6      15.210  44.792  47.934  1.00 70.64 LIG 0.04  C 
BRANCH 50 52
ATOM     52 OG1  THR G   6      13.876  43.197  49.167  1.00 70.47 LIG-0.39  OA
ATOM     53 HG1  THR G   6      14.412  43.287  49.807  1.00 70.47 LIG 0.21  HD
ENDBRANCH 50 52
ENDBRANCH 49 50
BRANCH 49 54
ATOM     54  C   THR G   6      14.388  43.027  45.456  1.00 73.53 LIG 0.24  C 
ATOM     55  N   ALA G   7      14.641  41.757  45.123  1.00 73.25 LIG-0.35  N 
ATOM     56 H    ALA G   7      14.452  41.090  45.632  1.00 73.25 LIG 0.16  HD
ATOM     57 O    THR G   6      14.777  43.990  44.792  1.00 75.15 LIG-0.27  OA
BRANCH 55 58
ATOM     58  CA  ALA G   7      15.270  41.372  43.852  1.00 74.45 LIG 0.16  C 
ATOM     59  CB  ALA G   7      16.443  40.434  44.101  1.00 73.04 LIG 0.04  C 
BRANCH 58 60
ATOM     60  C   ALA G   7      14.252  40.707  42.925  1.00 76.13 LIG 0.22  C 
ATOM     61 O    ALA G   7      13.084  40.541  43.280  1.00 77.97 LIG-0.29  OA
ENDBRANCH 58 60
ENDBRANCH 55 58
ENDBRANCH 49 54
ENDBRANCH 46 49
ENDBRANCH 43 45
ENDBRANCH 40 43
ENDBRANCH 37 39
ENDBRANCH 34 37
ENDBRANCH 1 33
TORSDOF 22
ENDMDL
MODEL 57
USER: ADFR SOLUTION from run 137
USER: SCORE 15.627163 LL:  -3.769 LR: -14.578 RR:   0.000 FEB:  -8.016
USER: RMSD 4.091594
USER: SEED 136
USER: STATUS no improvement in best in 15 clusters for 5 generations
USER: GENES 24
USER: genes 0 Translation |==|  0.31665 0.47291 0.44384
USER: genes 1 Rotation |==|  0.55292 0.51690 0.58070 0.99031
USER: genes 2 Torsion [CB]-CA--N-[C] |==|  0.22406
USER: genes 3 Torsion [N]-C--CA-[N] |==|  0.51664
USER: genes 4 Torsion [C]-CA--N-[C] |==|  0.78171
USER: genes 5 Torsion [N]-C--CA-[N] |==|  0.25866
USER: genes 6 Torsion [C]-CA--N-[H1] |==|  0.15148
USER: genes 7 Torsion [C]-CA--CB-[CG] |==|  0.52702
USER: genes 8 Torsion [CA]-CB--CG-[CD] |==|  0.32585
USER: genes 9 Torsion [CB]-CG--CD-[NE] |==|  0.55680
USER: genes 10 Torsion [CG]-CD--NE-[CZ] |==|  0.54689
USER: genes 11 Torsion [N]-CA--CB-[OG1] |==|  0.47324
USER: genes 12 Torsion [CA]-CB--OG1-[HG1] |==|  0.88668
USER: genes 13 Torsion [N]-CA--C-[N] |==|  0.21508
USER: genes 14 Torsion [C]-N--CA-[CB] |==|  0.82618
USER: genes 15 Torsion [N]-CA--C-[N] |==|  0.04150
USER: genes 16 Torsion [C]-N--CA-[CB] |==|  0.54089
USER: genes 17 Torsion [N]-CA--C-[N] |==|  0.28585
USER: genes 18 Torsion [C]-N--CA-[CB] |==|  0.86657
USER: genes 19 Torsion [N]-CA--CB-[CG2] |==|  0.52547
USER: genes 20 Torsion [CA]-CB--OG1-[HG1] |==|  0.04722
USER: genes 21 Torsion [N]-CA--C-[N] |==|  0.88669
USER: genes 22 Torsion [C]-N--CA-[C] |==|  0.76821
USER: genes 23 Torsion [N]-CA--C-[O] |==|  0.64891
ROOT
ATOM      1  CA  THR G   3      14.013  37.666  42.026  1.00 68.23 LIG 0.20  C 
ENDROOT
BRANCH 1 2
ATOM      2  N   THR G   3      15.449  37.820  41.820  1.00 68.42 LIG-0.34  N 
ATOM      3  C   ARG G   2      16.046  37.598  40.651  1.00 70.38 LIG 0.24  C 
ATOM      4 O    ARG G   2      15.466  37.137  39.661  1.00 69.46 LIG-0.27  OA
ATOM      5 H    THR G   3      15.874  38.068  42.525  1.00 68.42 LIG 0.16  HD
BRANCH 3 6
ATOM      6  CA  ARG G   2      17.535  37.921  40.600  1.00 72.62 LIG 0.18  C 
BRANCH 6 7
ATOM      7  N   ARG G   2      18.012  37.764  39.229  1.00 74.86 LIG-0.35  N 
ATOM      8  C   ALA G   1      18.276  36.570  38.703  1.00 76.29 LIG 0.25  C 
ATOM      9 O    ALA G   1      18.312  35.526  39.363  1.00 75.70 LIG-0.27  OA
ATOM     10 H    ARG G   2      18.106  38.504  38.801  1.00 74.86 LIG 0.16  HD
BRANCH 8 11
ATOM     11  CA  ALA G   1      18.550  36.546  37.208  1.00 78.97 LIG 0.27  C 
ATOM     12  CB  ALA G   1      17.984  35.269  36.598  1.00 79.33 LIG 0.05  C 
BRANCH 11 13
ATOM     13  N   ALA G   1      20.011  36.654  36.942  1.00 81.42 LIG-0.07  N 
ATOM     14 H3   ALA G   1      20.304  37.452  37.208  1.00 81.42 LIG 0.28  HD
ATOM     15 H2   ALA G   1      20.162  36.559  36.070  1.00 81.42 LIG 0.28  HD
ATOM     16 H1   ALA G   1      20.442  36.016  37.388  1.00 81.42 LIG 0.28  HD
ENDBRANCH 11 13
ENDBRANCH 8 11
ENDBRANCH 6 7
BRANCH 6 17
ATOM     17  CB  ARG G   2      17.804  39.340  41.113  1.00 73.45 LIG 0.04  C 
BRANCH 17 18
ATOM     18  CG  ARG G   2      19.229  39.804  40.869  1.00 75.79 LIG 0.02  C 
BRANCH 18 19
ATOM     19  CD  ARG G   2      19.296  41.011  39.946  1.00 77.52 LIG 0.14  C 
BRANCH 19 20
ATOM     20  NE  ARG G   2      20.624  41.149  39.343  1.00 80.25 LIG-0.23  N 
ATOM     21  CZ  ARG G   2      21.101  42.251  38.755  1.00 82.01 LIG 0.67  C 
ATOM     22  NH1 ARG G   2      20.374  43.366  38.663  1.00 81.47 LIG-0.23  N 
ATOM     23  NH2 ARG G   2      22.329  42.236  38.243  1.00 84.93 LIG-0.23  N 
ATOM     24 1HH1 ARG G   2      19.577  43.388  38.986  1.00 81.47 LIG 0.17  HD
ATOM     25 2HH1 ARG G   2      20.702  44.063  38.281  1.00 81.47 LIG 0.17  HD
ATOM     26 2HH2 ARG G   2      22.645  42.940  37.863  1.00 84.93 LIG 0.17  HD
ATOM     27 1HH2 ARG G   2      22.807  41.523  38.291  1.00 84.93 LIG 0.17  HD
ATOM     28 HE   ARG G   2      21.141  40.462  39.370  1.00 80.25 LIG 0.18  HD
ENDBRANCH 19 20
ENDBRANCH 18 19
ENDBRANCH 17 18
ENDBRANCH 6 17
ENDBRANCH 3 6
ENDBRANCH 1 2
BRANCH 1 29
ATOM     29  CB  THR G   3      13.616  36.187  42.243  1.00 68.23 LIG 0.15  C 
ATOM     30  CG2 THR G   3      14.506  35.538  43.286  1.00 68.63 LIG 0.04  C 
BRANCH 29 31
ATOM     31 OG1  THR G   3      12.248  36.099  42.661  1.00 67.51 LIG-0.39  OA
ATOM     32 HG1  THR G   3      12.083  36.712  43.212  1.00 67.51 LIG 0.21  HD
ENDBRANCH 29 31
ENDBRANCH 1 29
BRANCH 1 33
ATOM     33  C   THR G   3      13.559  38.490  43.226  1.00 68.02 LIG 0.24  C 
ATOM     34  N   ALA G   4      13.433  39.799  43.016  1.00 68.86 LIG-0.35  N 
ATOM     35 H    ALA G   4      13.637  40.181  42.273  1.00 68.86 LIG 0.16  HD
ATOM     36 O    THR G   3      13.333  37.953  44.312  1.00 67.54 LIG-0.27  OA
BRANCH 34 37
ATOM     37  CA  ALA G   4      12.930  40.720  44.039  1.00 69.75 LIG 0.17  C 
ATOM     38  CB  ALA G   4      11.498  40.364  44.402  1.00 70.86 LIG 0.04  C 
BRANCH 37 39
ATOM     39  C   ALA G   4      13.807  40.748  45.297  1.00 71.43 LIG 0.24  C 
ATOM     40  N   ALA G   5      15.024  40.210  45.193  1.00 71.85 LIG-0.35  N 
ATOM     41 H    ALA G   5      15.305  39.806  44.487  1.00 71.85 LIG 0.16  HD
ATOM     42 O    ALA G   4      13.380  41.254  46.339  1.00 72.80 LIG-0.27  OA
BRANCH 40 43
ATOM     43  CA  ALA G   5      16.003  40.256  46.284  1.00 72.89 LIG 0.17  C 
ATOM     44  CB  ALA G   5      17.391  39.899  45.770  1.00 72.65 LIG 0.04  C 
BRANCH 43 45
ATOM     45  C   ALA G   5      16.028  41.623  46.977  1.00 72.87 LIG 0.24  C 
ATOM     46  N   THR G   6      15.414  41.710  48.161  1.00 71.86 LIG-0.34  N 
ATOM     47 H    THR G   6      15.004  41.053  48.534  1.00 71.86 LIG 0.16  HD
ATOM     48 O    ALA G   5      16.596  42.577  46.442  1.00 74.40 LIG-0.27  OA
BRANCH 46 49
ATOM     49  CA  THR G   6      15.387  42.959  48.941  1.00 72.17 LIG 0.20  C 
BRANCH 49 50
ATOM     50  CB  THR G   6      16.785  43.609  49.060  1.00 71.29 LIG 0.15  C 
ATOM     51  CG2 THR G   6      16.764  44.767  50.054  1.00 70.64 LIG 0.04  C 
BRANCH 50 52
ATOM     52 OG1  THR G   6      17.746  42.633  49.480  1.00 70.47 LIG-0.39  OA
ATOM     53 HG1  THR G   6      17.434  41.863  49.361  1.00 70.47 LIG 0.21  HD
ENDBRANCH 50 52
ENDBRANCH 49 50
BRANCH 49 54
ATOM     54  C   THR G   6      14.402  43.989  48.370  1.00 73.53 LIG 0.24  C 
ATOM     55  N   ALA G   7      14.358  44.110  47.039  1.00 73.25 LIG-0.35  N 
ATOM     56 H    ALA G   7      14.905  43.706  46.511  1.00 73.25 LIG 0.16  HD
ATOM     57 O    THR G   6      13.710  44.667  49.133  1.00 75.15 LIG-0.27  OA
BRANCH 55 58
ATOM     58  CA  ALA G   7      13.370  44.945  46.342  1.00 74.45 LIG 0.16  C 
ATOM     59  CB  ALA G   7      13.911  45.393  44.991  1.00 73.04 LIG 0.04  C 
BRANCH 58 60
ATOM     60  C   ALA G   7      12.056  44.187  46.158  1.00 76.13 LIG 0.22  C 
ATOM     61 O    ALA G   7      11.539  44.073  45.046  1.00 77.97 LIG-0.29  OA
ENDBRANCH 58 60
ENDBRANCH 55 58
ENDBRANCH 49 54
ENDBRANCH 46 49
ENDBRANCH 43 45
ENDBRANCH 40 43
ENDBRANCH 37 39
ENDBRANCH 34 37
ENDBRANCH 1 33
TORSDOF 22
ENDMDL
MODEL 58
USER: ADFR SOLUTION from run 26
USER: SCORE 16.003705 LL:  -3.372 LR: -14.570 RR:   0.000 FEB:  -8.007
USER: RMSD 3.491219
USER: SEED 25
USER: STATUS no improvement in best in 13 clusters for 5 generations
USER: GENES 24
USER: genes 0 Translation |==|  0.33536 0.41152 0.40815
USER: genes 1 Rotation |==|  0.46459 0.56530 0.41362 0.98685
USER: genes 2 Torsion [CB]-CA--N-[C] |==|  0.49542
USER: genes 3 Torsion [N]-C--CA-[N] |==|  0.41469
USER: genes 4 Torsion [C]-CA--N-[C] |==|  0.82237
USER: genes 5 Torsion [N]-C--CA-[N] |==|  0.98118
USER: genes 6 Torsion [C]-CA--N-[H1] |==|  0.43409
USER: genes 7 Torsion [C]-CA--CB-[CG] |==|  0.59197
USER: genes 8 Torsion [CA]-CB--CG-[CD] |==|  0.28267
USER: genes 9 Torsion [CB]-CG--CD-[NE] |==|  0.62409
USER: genes 10 Torsion [CG]-CD--NE-[CZ] |==|  0.50982
USER: genes 11 Torsion [N]-CA--CB-[OG1] |==|  0.45520
USER: genes 12 Torsion [CA]-CB--OG1-[HG1] |==|  0.47728
USER: genes 13 Torsion [N]-CA--C-[N] |==|  0.41532
USER: genes 14 Torsion [C]-N--CA-[CB] |==|  0.53714
USER: genes 15 Torsion [N]-CA--C-[N] |==|  0.23591
USER: genes 16 Torsion [C]-N--CA-[CB] |==|  0.78888
USER: genes 17 Torsion [N]-CA--C-[N] |==|  0.06034
USER: genes 18 Torsion [C]-N--CA-[CB] |==|  0.86078
USER: genes 19 Torsion [N]-CA--CB-[CG2] |==|  0.40180
USER: genes 20 Torsion [CA]-CB--OG1-[HG1] |==|  0.57839
USER: genes 21 Torsion [N]-CA--C-[N] |==|  0.87245
USER: genes 22 Torsion [C]-N--CA-[C] |==|  0.63967
USER: genes 23 Torsion [N]-CA--C-[O] |==|  0.07247
ROOT
ATOM      1  CA  THR G   3      14.433  36.561  41.303  1.00 68.23 LIG 0.20  C 
ENDROOT
BRANCH 1 2
ATOM      2  N   THR G   3      15.581  35.728  40.958  1.00 68.42 LIG-0.34  N 
ATOM      3  C   ARG G   2      16.588  36.153  40.198  1.00 70.38 LIG 0.24  C 
ATOM      4 O    ARG G   2      16.599  37.247  39.624  1.00 69.46 LIG-0.27  OA
ATOM      5 H    THR G   3      15.545  34.937  41.292  1.00 68.42 LIG 0.16  HD
BRANCH 3 6
ATOM      6  CA  ARG G   2      17.751  35.179  40.042  1.00 72.62 LIG 0.18  C 
BRANCH 6 7
ATOM      7  N   ARG G   2      18.367  35.376  38.733  1.00 74.86 LIG-0.35  N 
ATOM      8  C   ALA G   1      17.711  35.143  37.598  1.00 76.29 LIG 0.25  C 
ATOM      9 O    ALA G   1      16.611  34.583  37.548  1.00 75.70 LIG-0.27  OA
ATOM     10 H    ARG G   2      19.181  35.652  38.765  1.00 74.86 LIG 0.16  HD
BRANCH 8 11
ATOM     11  CA  ALA G   1      18.402  35.600  36.323  1.00 78.97 LIG 0.27  C 
ATOM     12  CB  ALA G   1      18.737  34.393  35.455  1.00 79.33 LIG 0.05  C 
BRANCH 11 13
ATOM     13  N   ALA G   1      19.631  36.377  36.643  1.00 81.42 LIG-0.07  N 
ATOM     14 H3   ALA G   1      20.025  36.029  37.362  1.00 81.42 LIG 0.28  HD
ATOM     15 H2   ALA G   1      19.413  37.224  36.807  1.00 81.42 LIG 0.28  HD
ATOM     16 H1   ALA G   1      20.192  36.344  35.953  1.00 81.42 LIG 0.28  HD
ENDBRANCH 11 13
ENDBRANCH 8 11
ENDBRANCH 6 7
BRANCH 6 17
ATOM     17  CB  ARG G   2      18.777  35.370  41.163  1.00 73.45 LIG 0.04  C 
BRANCH 17 18
ATOM     18  CG  ARG G   2      20.205  35.101  40.719  1.00 75.79 LIG 0.02  C 
BRANCH 18 19
ATOM     19  CD  ARG G   2      20.982  36.383  40.462  1.00 77.52 LIG 0.14  C 
BRANCH 19 20
ATOM     20  NE  ARG G   2      21.750  36.299  39.217  1.00 80.25 LIG-0.23  N 
ATOM     21  CZ  ARG G   2      22.583  37.236  38.752  1.00 82.01 LIG 0.67  C 
ATOM     22  NH1 ARG G   2      22.792  38.377  39.413  1.00 81.47 LIG-0.23  N 
ATOM     23  NH2 ARG G   2      23.217  37.031  37.600  1.00 84.93 LIG-0.23  N 
ATOM     24 1HH1 ARG G   2      22.386  38.524  40.157  1.00 81.47 LIG 0.17  HD
ATOM     25 2HH1 ARG G   2      23.333  38.965  39.095  1.00 81.47 LIG 0.17  HD
ATOM     26 2HH2 ARG G   2      23.755  37.628  37.293  1.00 84.93 LIG 0.17  HD
ATOM     27 1HH2 ARG G   2      23.089  36.302  37.162  1.00 84.93 LIG 0.17  HD
ATOM     28 HE   ARG G   2      21.657  35.586  38.744  1.00 80.25 LIG 0.18  HD
ENDBRANCH 19 20
ENDBRANCH 18 19
ENDBRANCH 17 18
ENDBRANCH 6 17
ENDBRANCH 3 6
ENDBRANCH 1 2
BRANCH 1 29
ATOM     29  CB  THR G   3      13.401  35.795  42.163  1.00 68.23 LIG 0.15  C 
ATOM     30  CG2 THR G   3      14.096  34.966  43.228  1.00 68.63 LIG 0.04  C 
BRANCH 29 31
ATOM     31 OG1  THR G   3      12.498  36.716  42.788  1.00 67.51 LIG-0.39  OA
ATOM     32 HG1  THR G   3      11.877  36.290  43.160  1.00 67.51 LIG 0.21  HD
ENDBRANCH 29 31
ENDBRANCH 1 29
BRANCH 1 33
ATOM     33  C   THR G   3      14.890  37.806  42.057  1.00 68.02 LIG 0.24  C 
ATOM     34  N   ALA G   4      14.140  38.893  41.887  1.00 68.86 LIG-0.35  N 
ATOM     35 H    ALA G   4      13.468  38.926  41.352  1.00 68.86 LIG 0.16  HD
ATOM     36 O    THR G   3      15.896  37.780  42.768  1.00 67.54 LIG-0.27  OA
BRANCH 34 37
ATOM     37  CA  ALA G   4      14.393  40.148  42.601  1.00 69.75 LIG 0.17  C 
ATOM     38  CB  ALA G   4      13.202  41.080  42.455  1.00 70.86 LIG 0.04  C 
BRANCH 37 39
ATOM     39  C   ALA G   4      14.722  39.933  44.084  1.00 71.43 LIG 0.24  C 
ATOM     40  N   ALA G   5      15.994  39.665  44.384  1.00 71.85 LIG-0.35  N 
ATOM     41 H    ALA G   5      16.608  39.552  43.792  1.00 71.85 LIG 0.16  HD
ATOM     42 O    ALA G   4      13.830  40.013  44.934  1.00 72.80 LIG-0.27  OA
BRANCH 40 43
ATOM     43  CA  ALA G   5      16.468  39.536  45.766  1.00 72.89 LIG 0.17  C 
ATOM     44  CB  ALA G   5      16.600  40.907  46.415  1.00 72.65 LIG 0.04  C 
BRANCH 43 45
ATOM     45  C   ALA G   5      15.556  38.635  46.606  1.00 72.87 LIG 0.24  C 
ATOM     46  N   THR G   6      14.784  37.771  45.941  1.00 71.86 LIG-0.34  N 
ATOM     47 H    THR G   6      14.766  37.709  45.084  1.00 71.86 LIG 0.16  HD
ATOM     48 O    ALA G   5      15.557  38.728  47.835  1.00 74.40 LIG-0.27  OA
BRANCH 46 49
ATOM     49  CA  THR G   6      13.881  36.833  46.631  1.00 72.17 LIG 0.20  C 
BRANCH 49 50
ATOM     50  CB  THR G   6      14.597  36.045  47.753  1.00 71.29 LIG 0.15  C 
ATOM     51  CG2 THR G   6      13.656  35.801  48.931  1.00 70.64 LIG 0.04  C 
BRANCH 50 52
ATOM     52 OG1  THR G   6      15.068  34.790  47.247  1.00 70.47 LIG-0.39  OA
ATOM     53 HG1  THR G   6      15.095  34.228  47.871  1.00 70.47 LIG 0.21  HD
ENDBRANCH 50 52
ENDBRANCH 49 50
BRANCH 49 54
ATOM     54  C   THR G   6      12.645  37.530  47.218  1.00 73.53 LIG 0.24  C 
ATOM     55  N   ALA G   7      12.855  38.664  47.893  1.00 73.25 LIG-0.35  N 
ATOM     56 H    ALA G   7      13.639  38.964  48.079  1.00 73.25 LIG 0.16  HD
ATOM     57 O    THR G   6      11.528  37.029  47.066  1.00 75.15 LIG-0.27  OA
BRANCH 55 58
ATOM     58  CA  ALA G   7      11.764  39.516  48.388  1.00 74.45 LIG 0.16  C 
ATOM     59  CB  ALA G   7      11.652  39.412  49.902  1.00 73.04 LIG 0.04  C 
BRANCH 58 60
ATOM     60  C   ALA G   7      11.985  40.971  47.974  1.00 76.13 LIG 0.22  C 
ATOM     61 O    ALA G   7      12.644  41.253  46.973  1.00 77.97 LIG-0.29  OA
ENDBRANCH 58 60
ENDBRANCH 55 58
ENDBRANCH 49 54
ENDBRANCH 46 49
ENDBRANCH 43 45
ENDBRANCH 40 43
ENDBRANCH 37 39
ENDBRANCH 34 37
ENDBRANCH 1 33
TORSDOF 22
ENDMDL
MODEL 59
USER: ADFR SOLUTION from run 155
USER: SCORE 15.538812 LL:  -3.767 LR: -14.545 RR:   0.000 FEB:  -7.983
USER: RMSD 3.900181
USER: SEED 154
USER: STATUS no improvement in best in 19 clusters for 5 generations
USER: GENES 24
USER: genes 0 Translation |==|  0.34836 0.41735 0.41445
USER: genes 1 Rotation |==|  0.46805 0.55667 0.46330 0.99439
USER: genes 2 Torsion [CB]-CA--N-[C] |==|  0.50556
USER: genes 3 Torsion [N]-C--CA-[N] |==|  0.35041
USER: genes 4 Torsion [C]-CA--N-[C] |==|  0.83940
USER: genes 5 Torsion [N]-C--CA-[N] |==|  0.03214
USER: genes 6 Torsion [C]-CA--N-[H1] |==|  0.40122
USER: genes 7 Torsion [C]-CA--CB-[CG] |==|  0.72140
USER: genes 8 Torsion [CA]-CB--CG-[CD] |==|  0.74558
USER: genes 9 Torsion [CB]-CG--CD-[NE] |==|  0.50808
USER: genes 10 Torsion [CG]-CD--NE-[CZ] |==|  0.53261
USER: genes 11 Torsion [N]-CA--CB-[OG1] |==|  0.98764
USER: genes 12 Torsion [CA]-CB--OG1-[HG1] |==|  0.51785
USER: genes 13 Torsion [N]-CA--C-[N] |==|  0.40294
USER: genes 14 Torsion [C]-N--CA-[CB] |==|  0.47276
USER: genes 15 Torsion [N]-CA--C-[N] |==|  0.85146
USER: genes 16 Torsion [C]-N--CA-[CB] |==|  0.79419
USER: genes 17 Torsion [N]-CA--C-[N] |==|  0.17892
USER: genes 18 Torsion [C]-N--CA-[CB] |==|  0.85855
USER: genes 19 Torsion [N]-CA--CB-[CG2] |==|  0.42254
USER: genes 20 Torsion [CA]-CB--OG1-[HG1] |==|  0.31157
USER: genes 21 Torsion [N]-CA--C-[N] |==|  0.88352
USER: genes 22 Torsion [C]-N--CA-[C] |==|  0.76834
USER: genes 23 Torsion [N]-CA--C-[O] |==|  0.98351
ROOT
ATOM      1  CA  THR G   3      14.726  36.666  41.431  1.00 68.23 LIG 0.20  C 
ENDROOT
BRANCH 1 2
ATOM      2  N   THR G   3      16.024  36.090  41.092  1.00 68.42 LIG-0.34  N 
ATOM      3  C   ARG G   2      16.969  36.759  40.437  1.00 70.38 LIG 0.24  C 
ATOM      4 O    ARG G   2      16.805  37.887  39.958  1.00 69.46 LIG-0.27  OA
ATOM      5 H    THR G   3      16.120  35.278  41.356  1.00 68.42 LIG 0.16  HD
BRANCH 3 6
ATOM      6  CA  ARG G   2      18.300  36.031  40.276  1.00 72.62 LIG 0.18  C 
BRANCH 6 7
ATOM      7  N   ARG G   2      18.662  36.005  38.861  1.00 74.86 LIG-0.35  N 
ATOM      8  C   ALA G   1      17.871  35.466  37.937  1.00 76.29 LIG 0.25  C 
ATOM      9 O    ALA G   1      16.867  34.797  38.203  1.00 75.70 LIG-0.27  OA
ATOM     10 H    ARG G   2      19.423  36.365  38.686  1.00 74.86 LIG 0.16  HD
BRANCH 8 11
ATOM     11  CA  ALA G   1      18.275  35.708  36.491  1.00 78.97 LIG 0.27  C 
ATOM     12  CB  ALA G   1      18.191  34.404  35.705  1.00 79.33 LIG 0.05  C 
BRANCH 11 13
ATOM     13  N   ALA G   1      19.648  36.279  36.420  1.00 81.42 LIG-0.07  N 
ATOM     14 H3   ALA G   1      20.103  36.053  37.151  1.00 81.42 LIG 0.28  HD
ATOM     15 H2   ALA G   1      19.598  37.166  36.364  1.00 81.42 LIG 0.28  HD
ATOM     16 H1   ALA G   1      20.065  35.960  35.701  1.00 81.42 LIG 0.28  HD
ENDBRANCH 11 13
ENDBRANCH 8 11
ENDBRANCH 6 7
BRANCH 6 17
ATOM     17  CB  ARG G   2      19.395  36.704  41.108  1.00 73.45 LIG 0.04  C 
BRANCH 17 18
ATOM     18  CG  ARG G   2      20.301  37.606  40.288  1.00 75.79 LIG 0.02  C 
BRANCH 18 19
ATOM     19  CD  ARG G   2      21.523  36.872  39.758  1.00 77.52 LIG 0.14  C 
BRANCH 19 20
ATOM     20  NE  ARG G   2      22.414  37.777  39.029  1.00 80.25 LIG-0.23  N 
ATOM     21  CZ  ARG G   2      23.445  37.406  38.263  1.00 82.01 LIG 0.67  C 
ATOM     22  NH1 ARG G   2      23.763  36.120  38.093  1.00 81.47 LIG-0.23  N 
ATOM     23  NH2 ARG G   2      24.178  38.337  37.658  1.00 84.93 LIG-0.23  N 
ATOM     24 1HH1 ARG G   2      23.300  35.508  38.482  1.00 81.47 LIG 0.17  HD
ATOM     25 2HH1 ARG G   2      24.430  35.904  37.595  1.00 81.47 LIG 0.17  HD
ATOM     26 2HH2 ARG G   2      24.842  38.108  37.163  1.00 84.93 LIG 0.17  HD
ATOM     27 1HH2 ARG G   2      23.986  39.169  37.762  1.00 84.93 LIG 0.17  HD
ATOM     28 HE   ARG G   2      22.261  38.621  39.100  1.00 80.25 LIG 0.18  HD
ENDBRANCH 19 20
ENDBRANCH 18 19
ENDBRANCH 17 18
ENDBRANCH 6 17
ENDBRANCH 3 6
ENDBRANCH 1 2
BRANCH 1 29
ATOM     29  CB  THR G   3      13.848  35.678  42.234  1.00 68.23 LIG 0.15  C 
ATOM     30  CG2 THR G   3      12.499  35.489  41.565  1.00 68.63 LIG 0.04  C 
BRANCH 29 31
ATOM     31 OG1  THR G   3      14.508  34.411  42.347  1.00 67.51 LIG-0.39  OA
ATOM     32 HG1  THR G   3      13.989  33.856  42.706  1.00 67.51 LIG 0.21  HD
ENDBRANCH 29 31
ENDBRANCH 1 29
BRANCH 1 33
ATOM     33  C   THR G   3      14.909  37.947  42.238  1.00 68.02 LIG 0.24  C 
ATOM     34  N   ALA G   4      14.014  38.907  42.013  1.00 68.86 LIG-0.35  N 
ATOM     35 H    ALA G   4      13.394  38.846  41.419  1.00 68.86 LIG 0.16  HD
ATOM     36 O    THR G   3      15.840  38.062  43.038  1.00 67.54 LIG-0.27  OA
BRANCH 34 37
ATOM     37  CA  ALA G   4      13.998  40.166  42.762  1.00 69.75 LIG 0.17  C 
ATOM     38  CB  ALA G   4      13.026  41.142  42.120  1.00 70.86 LIG 0.04  C 
BRANCH 37 39
ATOM     39  C   ALA G   4      13.656  39.972  44.245  1.00 71.43 LIG 0.24  C 
ATOM     40  N   ALA G   5      12.534  39.305  44.520  1.00 71.85 LIG-0.35  N 
ATOM     41 H    ALA G   5      11.980  39.039  43.918  1.00 71.85 LIG 0.16  HD
ATOM     42 O    ALA G   4      14.405  40.422  45.117  1.00 72.80 LIG-0.27  OA
BRANCH 40 43
ATOM     43  CA  ALA G   5      12.137  38.960  45.889  1.00 72.89 LIG 0.17  C 
ATOM     44  CB  ALA G   5      12.996  37.821  46.423  1.00 72.65 LIG 0.04  C 
BRANCH 43 45
ATOM     45  C   ALA G   5      12.209  40.167  46.831  1.00 72.87 LIG 0.24  C 
ATOM     46  N   THR G   6      11.377  41.181  46.576  1.00 71.86 LIG-0.34  N 
ATOM     47 H    THR G   6      10.826  41.191  45.916  1.00 71.86 LIG 0.16  HD
ATOM     48 O    ALA G   5      13.007  40.171  47.770  1.00 74.40 LIG-0.27  OA
BRANCH 46 49
ATOM     49  CA  THR G   6      11.328  42.387  47.420  1.00 72.17 LIG 0.20  C 
BRANCH 49 50
ATOM     50  CB  THR G   6      11.179  42.050  48.922  1.00 71.29 LIG 0.15  C 
ATOM     51  CG2 THR G   6      11.796  43.145  49.789  1.00 70.64 LIG 0.04  C 
BRANCH 50 52
ATOM     52 OG1  THR G   6       9.794  41.898  49.255  1.00 70.47 LIG-0.39  OA
ATOM     53 HG1  THR G   6       9.638  41.095  49.447  1.00 70.47 LIG 0.21  HD
ENDBRANCH 50 52
ENDBRANCH 49 50
BRANCH 49 54
ATOM     54  C   THR G   6      12.557  43.288  47.229  1.00 73.53 LIG 0.24  C 
ATOM     55  N   ALA G   7      13.744  42.681  47.140  1.00 73.25 LIG-0.35  N 
ATOM     56 H    ALA G   7      13.853  41.837  47.267  1.00 73.25 LIG 0.16  HD
ATOM     57 O    THR G   6      12.418  44.513  47.178  1.00 75.15 LIG-0.27  OA
BRANCH 55 58
ATOM     58  CA  ALA G   7      14.987  43.394  46.814  1.00 74.45 LIG 0.16  C 
ATOM     59  CB  ALA G   7      16.190  42.653  47.381  1.00 73.04 LIG 0.04  C 
BRANCH 58 60
ATOM     60  C   ALA G   7      15.135  43.559  45.302  1.00 76.13 LIG 0.22  C 
ATOM     61 O    ALA G   7      14.338  43.031  44.524  1.00 77.97 LIG-0.29  OA
ENDBRANCH 58 60
ENDBRANCH 55 58
ENDBRANCH 49 54
ENDBRANCH 46 49
ENDBRANCH 43 45
ENDBRANCH 40 43
ENDBRANCH 37 39
ENDBRANCH 34 37
ENDBRANCH 1 33
TORSDOF 22
ENDMDL
MODEL 60
USER: ADFR SOLUTION from run 188
USER: SCORE 15.964510 LL:  -3.272 LR: -14.539 RR:   0.000 FEB:  -7.976
USER: RMSD 4.492482
USER: SEED 187
USER: STATUS searching
USER: GENES 24
USER: genes 0 Translation |==|  0.32242 0.47131 0.44519
USER: genes 1 Rotation |==|  0.55383 0.53932 0.55607 0.99235
USER: genes 2 Torsion [CB]-CA--N-[C] |==|  0.23502
USER: genes 3 Torsion [N]-C--CA-[N] |==|  0.50556
USER: genes 4 Torsion [C]-CA--N-[C] |==|  0.75818
USER: genes 5 Torsion [N]-C--CA-[N] |==|  0.26431
USER: genes 6 Torsion [C]-CA--N-[H1] |==|  0.05933
USER: genes 7 Torsion [C]-CA--CB-[CG] |==|  0.51802
USER: genes 8 Torsion [CA]-CB--CG-[CD] |==|  0.91654
USER: genes 9 Torsion [CB]-CG--CD-[NE] |==|  0.41169
USER: genes 10 Torsion [CG]-CD--NE-[CZ] |==|  0.57809
USER: genes 11 Torsion [N]-CA--CB-[OG1] |==|  0.40311
USER: genes 12 Torsion [CA]-CB--OG1-[HG1] |==|  0.21941
USER: genes 13 Torsion [N]-CA--C-[N] |==|  0.33000
USER: genes 14 Torsion [C]-N--CA-[CB] |==|  0.82181
USER: genes 15 Torsion [N]-CA--C-[N] |==|  0.99551
USER: genes 16 Torsion [C]-N--CA-[CB] |==|  0.52374
USER: genes 17 Torsion [N]-CA--C-[N] |==|  0.43686
USER: genes 18 Torsion [C]-N--CA-[CB] |==|  0.85176
USER: genes 19 Torsion [N]-CA--CB-[CG2] |==|  0.61687
USER: genes 20 Torsion [CA]-CB--OG1-[HG1] |==|  0.78416
USER: genes 21 Torsion [N]-CA--C-[N] |==|  0.92220
USER: genes 22 Torsion [C]-N--CA-[C] |==|  0.73311
USER: genes 23 Torsion [N]-CA--C-[O] |==|  0.96814
ROOT
ATOM      1  CA  THR G   3      14.143  37.638  42.053  1.00 68.23 LIG 0.20  C 
ENDROOT
BRANCH 1 2
ATOM      2  N   THR G   3      15.560  37.661  41.705  1.00 68.42 LIG-0.34  N 
ATOM      3  C   ARG G   2      16.010  37.448  40.471  1.00 70.38 LIG 0.24  C 
ATOM      4 O    ARG G   2      15.289  37.104  39.527  1.00 69.46 LIG-0.27  OA
ATOM      5 H    THR G   3      16.076  37.824  42.372  1.00 68.42 LIG 0.16  HD
BRANCH 3 6
ATOM      6  CA  ARG G   2      17.513  37.625  40.278  1.00 72.62 LIG 0.18  C 
BRANCH 6 7
ATOM      7  N   ARG G   2      17.845  37.406  38.873  1.00 74.86 LIG-0.35  N 
ATOM      8  C   ALA G   1      18.106  36.195  38.387  1.00 76.29 LIG 0.25  C 
ATOM      9 O    ALA G   1      18.263  35.195  39.095  1.00 75.70 LIG-0.27  OA
ATOM     10 H    ARG G   2      17.855  38.123  38.398  1.00 74.86 LIG 0.16  HD
BRANCH 8 11
ATOM     11  CA  ALA G   1      18.216  36.094  36.874  1.00 78.97 LIG 0.27  C 
ATOM     12  CB  ALA G   1      17.603  34.782  36.397  1.00 79.33 LIG 0.05  C 
BRANCH 11 13
ATOM     13  N   ALA G   1      19.638  36.197  36.445  1.00 81.42 LIG-0.07  N 
ATOM     14 H3   ALA G   1      19.809  37.029  36.178  1.00 81.42 LIG 0.28  HD
ATOM     15 H2   ALA G   1      19.787  35.633  35.772  1.00 81.42 LIG 0.28  HD
ATOM     16 H1   ALA G   1      20.171  35.990  37.128  1.00 81.42 LIG 0.28  HD
ENDBRANCH 11 13
ENDBRANCH 8 11
ENDBRANCH 6 7
BRANCH 6 17
ATOM     17  CB  ARG G   2      17.961  39.017  40.736  1.00 73.45 LIG 0.04  C 
BRANCH 17 18
ATOM     18  CG  ARG G   2      19.419  39.308  40.423  1.00 75.79 LIG 0.02  C 
BRANCH 18 19
ATOM     19  CD  ARG G   2      20.274  38.051  40.427  1.00 77.52 LIG 0.14  C 
BRANCH 19 20
ATOM     20  NE  ARG G   2      21.377  38.153  39.469  1.00 80.25 LIG-0.23  N 
ATOM     21  CZ  ARG G   2      21.963  37.128  38.843  1.00 82.01 LIG 0.67  C 
ATOM     22  NH1 ARG G   2      21.575  35.867  39.051  1.00 81.47 LIG-0.23  N 
ATOM     23  NH2 ARG G   2      22.962  37.364  37.996  1.00 84.93 LIG-0.23  N 
ATOM     24 1HH1 ARG G   2      20.933  35.700  39.598  1.00 81.47 LIG 0.17  HD
ATOM     25 2HH1 ARG G   2      21.966  35.223  38.636  1.00 81.47 LIG 0.17  HD
ATOM     26 2HH2 ARG G   2      23.344  36.711  37.589  1.00 84.93 LIG 0.17  HD
ATOM     27 1HH2 ARG G   2      23.225  38.171  37.856  1.00 84.93 LIG 0.17  HD
ATOM     28 HE   ARG G   2      21.674  38.942  39.293  1.00 80.25 LIG 0.18  HD
ENDBRANCH 19 20
ENDBRANCH 18 19
ENDBRANCH 17 18
ENDBRANCH 6 17
ENDBRANCH 3 6
ENDBRANCH 1 2
BRANCH 1 29
ATOM     29  CB  THR G   3      13.641  36.202  42.337  1.00 68.23 LIG 0.15  C 
ATOM     30  CG2 THR G   3      14.791  35.302  42.751  1.00 68.63 LIG 0.04  C 
BRANCH 29 31
ATOM     31 OG1  THR G   3      12.651  36.220  43.373  1.00 67.51 LIG-0.39  OA
ATOM     32 HG1  THR G   3      11.914  36.463  43.052  1.00 67.51 LIG 0.21  HD
ENDBRANCH 29 31
ENDBRANCH 1 29
BRANCH 1 33
ATOM     33  C   THR G   3      13.884  38.511  43.276  1.00 68.02 LIG 0.24  C 
ATOM     34  N   ALA G   4      13.056  39.538  43.089  1.00 68.86 LIG-0.35  N 
ATOM     35 H    ALA G   4      12.719  39.741  42.325  1.00 68.86 LIG 0.16  HD
ATOM     36 O    THR G   3      14.423  38.262  44.356  1.00 67.54 LIG-0.27  OA
BRANCH 34 37
ATOM     37  CA  ALA G   4      12.639  40.426  44.178  1.00 69.75 LIG 0.17  C 
ATOM     38  CB  ALA G   4      11.833  39.648  45.205  1.00 70.86 LIG 0.04  C 
BRANCH 37 39
ATOM     39  C   ALA G   4      13.820  41.134  44.854  1.00 71.43 LIG 0.24  C 
ATOM     40  N   ALA G   5      15.039  40.834  44.400  1.00 71.85 LIG-0.35  N 
ATOM     41 H    ALA G   5      15.189  40.233  43.804  1.00 71.85 LIG 0.16  HD
ATOM     42 O    ALA G   4      13.619  41.939  45.768  1.00 72.80 LIG-0.27  OA
BRANCH 40 43
ATOM     43  CA  ALA G   5      16.248  41.509  44.885  1.00 72.89 LIG 0.17  C 
ATOM     44  CB  ALA G   5      17.454  41.110  44.043  1.00 72.65 LIG 0.04  C 
BRANCH 43 45
ATOM     45  C   ALA G   5      16.091  43.033  44.900  1.00 72.87 LIG 0.24  C 
ATOM     46  N   THR G   6      16.892  43.714  45.724  1.00 71.86 LIG-0.34  N 
ATOM     47 H    THR G   6      17.467  43.343  46.244  1.00 71.86 LIG 0.16  HD
ATOM     48 O    ALA G   5      15.255  43.575  44.174  1.00 74.40 LIG-0.27  OA
BRANCH 46 49
ATOM     49  CA  THR G   6      16.858  45.184  45.815  1.00 72.17 LIG 0.20  C 
BRANCH 49 50
ATOM     50  CB  THR G   6      17.020  45.863  44.435  1.00 71.29 LIG 0.15  C 
ATOM     51  CG2 THR G   6      17.954  47.067  44.528  1.00 70.64 LIG 0.04  C 
BRANCH 50 52
ATOM     52 OG1  THR G   6      17.540  44.925  43.486  1.00 70.47 LIG-0.39  OA
ATOM     53 HG1  THR G   6      18.366  44.832  43.607  1.00 70.47 LIG 0.21  HD
ENDBRANCH 50 52
ENDBRANCH 49 50
BRANCH 49 54
ATOM     54  C   THR G   6      15.576  45.703  46.481  1.00 73.53 LIG 0.24  C 
ATOM     55  N   ALA G   7      14.483  44.943  46.362  1.00 73.25 LIG-0.35  N 
ATOM     56 H    ALA G   7      14.449  44.239  45.869  1.00 73.25 LIG 0.16  HD
ATOM     57 O    THR G   6      15.587  46.782  47.078  1.00 75.15 LIG-0.27  OA
BRANCH 55 58
ATOM     58  CA  ALA G   7      13.223  45.234  47.062  1.00 74.45 LIG 0.16  C 
ATOM     59  CB  ALA G   7      12.032  44.929  46.165  1.00 73.04 LIG 0.04  C 
BRANCH 58 60
ATOM     60  C   ALA G   7      13.127  44.428  48.357  1.00 76.13 LIG 0.22  C 
ATOM     61 O    ALA G   7      13.915  43.512  48.596  1.00 77.97 LIG-0.29  OA
ENDBRANCH 58 60
ENDBRANCH 55 58
ENDBRANCH 49 54
ENDBRANCH 46 49
ENDBRANCH 43 45
ENDBRANCH 40 43
ENDBRANCH 37 39
ENDBRANCH 34 37
ENDBRANCH 1 33
TORSDOF 22
ENDMDL
MODEL 61
USER: ADFR SOLUTION from run 136
USER: SCORE 15.009327 LL:  -2.937 LR: -14.531 RR:   0.000 FEB:  -7.968
USER: RMSD 4.935807
USER: SEED 135
USER: STATUS searching
USER: GENES 24
USER: genes 0 Translation |==|  0.31766 0.46683 0.45639
USER: genes 1 Rotation |==|  0.55721 0.53863 0.57641 0.98928
USER: genes 2 Torsion [CB]-CA--N-[C] |==|  0.23206
USER: genes 3 Torsion [N]-C--CA-[N] |==|  0.50294
USER: genes 4 Torsion [C]-CA--N-[C] |==|  0.76865
USER: genes 5 Torsion [N]-C--CA-[N] |==|  0.24318
USER: genes 6 Torsion [C]-CA--N-[H1] |==|  0.30818
USER: genes 7 Torsion [C]-CA--CB-[CG] |==|  0.50636
USER: genes 8 Torsion [CA]-CB--CG-[CD] |==|  0.21154
USER: genes 9 Torsion [CB]-CG--CD-[NE] |==|  0.27953
USER: genes 10 Torsion [CG]-CD--NE-[CZ] |==|  0.27772
USER: genes 11 Torsion [N]-CA--CB-[OG1] |==|  0.54679
USER: genes 12 Torsion [CA]-CB--OG1-[HG1] |==|  0.74726
USER: genes 13 Torsion [N]-CA--C-[N] |==|  0.44301
USER: genes 14 Torsion [C]-N--CA-[CB] |==|  0.88160
USER: genes 15 Torsion [N]-CA--C-[N] |==|  0.39439
USER: genes 16 Torsion [C]-N--CA-[CB] |==|  0.47802
USER: genes 17 Torsion [N]-CA--C-[N] |==|  0.38335
USER: genes 18 Torsion [C]-N--CA-[CB] |==|  0.54188
USER: genes 19 Torsion [N]-CA--CB-[CG2] |==|  0.70925
USER: genes 20 Torsion [CA]-CB--OG1-[HG1] |==|  0.78593
USER: genes 21 Torsion [N]-CA--C-[N] |==|  0.40220
USER: genes 22 Torsion [C]-N--CA-[C] |==|  0.19498
USER: genes 23 Torsion [N]-CA--C-[O] |==|  0.09428
ROOT
ATOM      1  CA  THR G   3      14.035  37.557  42.280  1.00 68.23 LIG 0.20  C 
ENDROOT
BRANCH 1 2
ATOM      2  N   THR G   3      15.449  37.701  41.946  1.00 68.42 LIG-0.34  N 
ATOM      3  C   ARG G   2      15.928  37.531  40.716  1.00 70.38 LIG 0.24  C 
ATOM      4 O    ARG G   2      15.248  37.132  39.764  1.00 69.46 LIG-0.27  OA
ATOM      5 H    THR G   3      15.943  37.905  42.619  1.00 68.42 LIG 0.16  HD
BRANCH 3 6
ATOM      6  CA  ARG G   2      17.412  37.836  40.540  1.00 72.62 LIG 0.18  C 
BRANCH 6 7
ATOM      7  N   ARG G   2      17.780  37.629  39.142  1.00 74.86 LIG-0.35  N 
ATOM      8  C   ALA G   1      18.080  36.426  38.658  1.00 76.29 LIG 0.25  C 
ATOM      9 O    ALA G   1      18.245  35.428  39.366  1.00 75.70 LIG-0.27  OA
ATOM     10 H    ARG G   2      17.784  38.348  38.669  1.00 74.86 LIG 0.16  HD
BRANCH 8 11
ATOM     11  CA  ALA G   1      18.226  36.332  37.148  1.00 78.97 LIG 0.27  C 
ATOM     12  CB  ALA G   1      17.830  34.938  36.675  1.00 79.33 LIG 0.05  C 
BRANCH 11 13
ATOM     13  N   ALA G   1      19.622  36.651  36.736  1.00 81.42 LIG-0.07  N 
ATOM     14 H3   ALA G   1      20.074  36.964  37.436  1.00 81.42 LIG 0.28  HD
ATOM     15 H2   ALA G   1      19.608  37.266  36.093  1.00 81.42 LIG 0.28  HD
ATOM     16 H1   ALA G   1      20.018  35.914  36.433  1.00 81.42 LIG 0.28  HD
ENDBRANCH 11 13
ENDBRANCH 8 11
ENDBRANCH 6 7
BRANCH 6 17
ATOM     17  CB  ARG G   2      17.732  39.267  40.983  1.00 73.45 LIG 0.04  C 
BRANCH 17 18
ATOM     18  CG  ARG G   2      19.189  39.644  40.778  1.00 75.79 LIG 0.02  C 
BRANCH 18 19
ATOM     19  CD  ARG G   2      19.512  39.937  39.321  1.00 77.52 LIG 0.14  C 
BRANCH 19 20
ATOM     20  NE  ARG G   2      19.556  41.379  39.064  1.00 80.25 LIG-0.23  N 
ATOM     21  CZ  ARG G   2      20.665  42.120  38.980  1.00 82.01 LIG 0.67  C 
ATOM     22  NH1 ARG G   2      21.879  41.585  39.131  1.00 81.47 LIG-0.23  N 
ATOM     23  NH2 ARG G   2      20.560  43.426  38.744  1.00 84.93 LIG-0.23  N 
ATOM     24 1HH1 ARG G   2      21.960  40.743  39.288  1.00 81.47 LIG 0.17  HD
ATOM     25 2HH1 ARG G   2      22.578  42.082  39.073  1.00 81.47 LIG 0.17  HD
ATOM     26 2HH2 ARG G   2      21.268  43.911  38.688  1.00 84.93 LIG 0.17  HD
ATOM     27 1HH2 ARG G   2      19.785  43.785  38.648  1.00 84.93 LIG 0.17  HD
ATOM     28 HE   ARG G   2      18.804  41.782  38.958  1.00 80.25 LIG 0.18  HD
ENDBRANCH 19 20
ENDBRANCH 18 19
ENDBRANCH 17 18
ENDBRANCH 6 17
ENDBRANCH 3 6
ENDBRANCH 1 2
BRANCH 1 29
ATOM     29  CB  THR G   3      13.648  36.080  42.529  1.00 68.23 LIG 0.15  C 
ATOM     30  CG2 THR G   3      14.147  35.613  43.884  1.00 68.63 LIG 0.04  C 
BRANCH 29 31
ATOM     31 OG1  THR G   3      12.225  35.925  42.464  1.00 67.51 LIG-0.39  OA
ATOM     32 HG1  THR G   3      11.897  36.025  43.231  1.00 67.51 LIG 0.21  HD
ENDBRANCH 29 31
ENDBRANCH 1 29
BRANCH 1 33
ATOM     33  C   THR G   3      13.698  38.381  43.518  1.00 68.02 LIG 0.24  C 
ATOM     34  N   ALA G   4      12.410  38.680  43.681  1.00 68.86 LIG-0.35  N 
ATOM     35 H    ALA G   4      11.801  38.475  43.110  1.00 68.86 LIG 0.16  HD
ATOM     36 O    THR G   3      14.581  38.736  44.301  1.00 67.54 LIG-0.27  OA
BRANCH 34 37
ATOM     37  CA  ALA G   4      11.906  39.394  44.857  1.00 69.75 LIG 0.17  C 
ATOM     38  CB  ALA G   4      12.562  38.853  46.116  1.00 70.86 LIG 0.04  C 
BRANCH 37 39
ATOM     39  C   ALA G   4      12.107  40.912  44.763  1.00 71.43 LIG 0.24  C 
ATOM     40  N   ALA G   5      11.127  41.679  45.246  1.00 71.85 LIG-0.35  N 
ATOM     41 H    ALA G   5      10.384  41.367  45.545  1.00 71.85 LIG 0.16  HD
ATOM     42 O    ALA G   4      13.138  41.371  44.261  1.00 72.80 LIG-0.27  OA
BRANCH 40 43
ATOM     43  CA  ALA G   5      11.230  43.141  45.312  1.00 72.89 LIG 0.17  C 
ATOM     44  CB  ALA G   5       9.896  43.751  45.723  1.00 72.65 LIG 0.04  C 
BRANCH 43 45
ATOM     45  C   ALA G   5      12.339  43.598  46.265  1.00 72.87 LIG 0.24  C 
ATOM     46  N   THR G   6      13.104  44.614  45.857  1.00 71.86 LIG-0.34  N 
ATOM     47 H    THR G   6      13.013  45.004  45.096  1.00 71.86 LIG 0.16  HD
ATOM     48 O    ALA G   5      12.493  43.035  47.351  1.00 74.40 LIG-0.27  OA
BRANCH 46 49
ATOM     49  CA  THR G   6      14.188  45.165  46.688  1.00 72.17 LIG 0.20  C 
BRANCH 49 50
ATOM     50  CB  THR G   6      14.676  46.543  46.182  1.00 71.29 LIG 0.15  C 
ATOM     51  CG2 THR G   6      16.022  46.415  45.472  1.00 70.64 LIG 0.04  C 
BRANCH 50 52
ATOM     52 OG1  THR G   6      13.712  47.105  45.285  1.00 70.47 LIG-0.39  OA
ATOM     53 HG1  THR G   6      13.772  46.730  44.536  1.00 70.47 LIG 0.21  HD
ENDBRANCH 50 52
ENDBRANCH 49 50
BRANCH 49 54
ATOM     54  C   THR G   6      13.791  45.287  48.167  1.00 73.53 LIG 0.24  C 
ATOM     55  N   ALA G   7      14.750  45.062  49.071  1.00 73.25 LIG-0.35  N 
ATOM     56 H    ALA G   7      15.535  44.776  48.864  1.00 73.25 LIG 0.16  HD
ATOM     57 O    THR G   6      12.629  45.567  48.469  1.00 75.15 LIG-0.27  OA
BRANCH 55 58
ATOM     58  CA  ALA G   7      14.560  45.280  50.512  1.00 74.45 LIG 0.16  C 
ATOM     59  CB  ALA G   7      14.024  46.680  50.773  1.00 73.04 LIG 0.04  C 
BRANCH 58 60
ATOM     60  C   ALA G   7      13.609  44.235  51.095  1.00 76.13 LIG 0.22  C 
ATOM     61 O    ALA G   7      13.586  43.083  50.660  1.00 77.97 LIG-0.29  OA
ENDBRANCH 58 60
ENDBRANCH 55 58
ENDBRANCH 49 54
ENDBRANCH 46 49
ENDBRANCH 43 45
ENDBRANCH 40 43
ENDBRANCH 37 39
ENDBRANCH 34 37
ENDBRANCH 1 33
TORSDOF 22
ENDMDL
MODEL 62
USER: ADFR SOLUTION from run 95
USER: SCORE 15.056249 LL:  -3.105 LR: -14.497 RR:   0.000 FEB:  -7.934
USER: RMSD 4.298087
USER: SEED 94
USER: STATUS no improvement in best in 15 clusters for 5 generations
USER: GENES 24
USER: genes 0 Translation |==|  0.32104 0.47818 0.45267
USER: genes 1 Rotation |==|  0.53892 0.52525 0.56346 0.99378
USER: genes 2 Torsion [CB]-CA--N-[C] |==|  0.25456
USER: genes 3 Torsion [N]-C--CA-[N] |==|  0.49960
USER: genes 4 Torsion [C]-CA--N-[C] |==|  0.76455
USER: genes 5 Torsion [N]-C--CA-[N] |==|  0.24997
USER: genes 6 Torsion [C]-CA--N-[H1] |==|  0.86402
USER: genes 7 Torsion [C]-CA--CB-[CG] |==|  0.54763
USER: genes 8 Torsion [CA]-CB--CG-[CD] |==|  0.30651
USER: genes 9 Torsion [CB]-CG--CD-[NE] |==|  0.52625
USER: genes 10 Torsion [CG]-CD--NE-[CZ] |==|  0.57344
USER: genes 11 Torsion [N]-CA--CB-[OG1] |==|  0.35518
USER: genes 12 Torsion [CA]-CB--OG1-[HG1] |==|  0.24787
USER: genes 13 Torsion [N]-CA--C-[N] |==|  0.36562
USER: genes 14 Torsion [C]-N--CA-[CB] |==|  0.59620
USER: genes 15 Torsion [N]-CA--C-[N] |==|  0.78994
USER: genes 16 Torsion [C]-N--CA-[CB] |==|  0.85558
USER: genes 17 Torsion [N]-CA--C-[N] |==|  0.89502
USER: genes 18 Torsion [C]-N--CA-[CB] |==|  0.78217
USER: genes 19 Torsion [N]-CA--CB-[CG2] |==|  0.85100
USER: genes 20 Torsion [CA]-CB--OG1-[HG1] |==|  0.90823
USER: genes 21 Torsion [N]-CA--C-[N] |==|  0.17482
USER: genes 22 Torsion [C]-N--CA-[C] |==|  0.54415
USER: genes 23 Torsion [N]-CA--C-[O] |==|  0.00310
ROOT
ATOM      1  CA  THR G   3      14.111  37.761  42.205  1.00 68.23 LIG 0.20  C 
ENDROOT
BRANCH 1 2
ATOM      2  N   THR G   3      15.547  37.808  41.948  1.00 68.42 LIG-0.34  N 
ATOM      3  C   ARG G   2      16.075  37.681  40.733  1.00 70.38 LIG 0.24  C 
ATOM      4 O    ARG G   2      15.416  37.404  39.724  1.00 69.46 LIG-0.27  OA
ATOM      5 H    THR G   3      16.021  37.925  42.657  1.00 68.42 LIG 0.16  HD
BRANCH 3 6
ATOM      6  CA  ARG G   2      17.586  37.870  40.648  1.00 72.62 LIG 0.18  C 
BRANCH 6 7
ATOM      7  N   ARG G   2      18.013  37.698  39.263  1.00 74.86 LIG-0.35  N 
ATOM      8  C   ALA G   1      18.271  36.500  38.744  1.00 76.29 LIG 0.25  C 
ATOM      9 O    ALA G   1      18.345  35.467  39.416  1.00 75.70 LIG-0.27  OA
ATOM     10 H    ARG G   2      18.081  38.434  38.821  1.00 74.86 LIG 0.16  HD
BRANCH 8 11
ATOM     11  CA  ALA G   1      18.489  36.458  37.240  1.00 78.97 LIG 0.27  C 
ATOM     12  CB  ALA G   1      17.985  35.132  36.681  1.00 79.33 LIG 0.05  C 
BRANCH 11 13
ATOM     13  N   ALA G   1      19.928  36.654  36.913  1.00 81.42 LIG-0.07  N 
ATOM     14 H3   ALA G   1      20.019  36.787  36.038  1.00 81.42 LIG 0.28  HD
ATOM     15 H2   ALA G   1      20.388  35.931  37.153  1.00 81.42 LIG 0.28  HD
ATOM     16 H1   ALA G   1      20.239  37.362  37.354  1.00 81.42 LIG 0.28  HD
ENDBRANCH 11 13
ENDBRANCH 8 11
ENDBRANCH 6 7
BRANCH 6 17
ATOM     17  CB  ARG G   2      17.994  39.248  41.179  1.00 73.45 LIG 0.04  C 
BRANCH 17 18
ATOM     18  CG  ARG G   2      19.391  39.664  40.753  1.00 75.79 LIG 0.02  C 
BRANCH 18 19
ATOM     19  CD  ARG G   2      19.375  40.807  39.751  1.00 77.52 LIG 0.14  C 
BRANCH 19 20
ATOM     20  NE  ARG G   2      20.707  41.042  39.187  1.00 80.25 LIG-0.23  N 
ATOM     21  CZ  ARG G   2      21.154  42.205  38.702  1.00 82.01 LIG 0.67  C 
ATOM     22  NH1 ARG G   2      20.387  43.298  38.688  1.00 81.47 LIG-0.23  N 
ATOM     23  NH2 ARG G   2      22.390  42.277  38.215  1.00 84.93 LIG-0.23  N 
ATOM     24 1HH1 ARG G   2      19.585  43.264  38.996  1.00 81.47 LIG 0.17  HD
ATOM     25 2HH1 ARG G   2      20.696  44.035  38.371  1.00 81.47 LIG 0.17  HD
ATOM     26 2HH2 ARG G   2      22.686  43.020  37.901  1.00 84.93 LIG 0.17  HD
ATOM     27 1HH2 ARG G   2      22.893  41.579  38.214  1.00 84.93 LIG 0.17  HD
ATOM     28 HE   ARG G   2      21.249  40.373  39.168  1.00 80.25 LIG 0.18  HD
ENDBRANCH 19 20
ENDBRANCH 18 19
ENDBRANCH 17 18
ENDBRANCH 6 17
ENDBRANCH 3 6
ENDBRANCH 1 2
BRANCH 1 29
ATOM     29  CB  THR G   3      13.629  36.328  42.529  1.00 68.23 LIG 0.15  C 
ATOM     30  CG2 THR G   3      14.806  35.378  42.652  1.00 68.63 LIG 0.04  C 
BRANCH 29 31
ATOM     31 OG1  THR G   3      12.882  36.323  43.752  1.00 67.51 LIG-0.39  OA
ATOM     32 HG1  THR G   3      12.071  36.465  43.585  1.00 67.51 LIG 0.21  HD
ENDBRANCH 29 31
ENDBRANCH 1 29
BRANCH 1 33
ATOM     33  C   THR G   3      13.750  38.687  43.361  1.00 68.02 LIG 0.24  C 
ATOM     34  N   ALA G   4      12.722  39.506  43.148  1.00 68.86 LIG-0.35  N 
ATOM     35 H    ALA G   4      12.308  39.560  42.396  1.00 68.86 LIG 0.16  HD
ATOM     36 O    THR G   3      14.389  38.660  44.415  1.00 67.54 LIG-0.27  OA
BRANCH 34 37
ATOM     37  CA  ALA G   4      12.195  40.401  44.182  1.00 69.75 LIG 0.17  C 
ATOM     38  CB  ALA G   4      10.688  40.536  44.036  1.00 70.86 LIG 0.04  C 
BRANCH 37 39
ATOM     39  C   ALA G   4      12.553  39.944  45.602  1.00 71.43 LIG 0.24  C 
ATOM     40  N   ALA G   5      11.866  38.909  46.091  1.00 71.85 LIG-0.35  N 
ATOM     41 H    ALA G   5      11.210  38.537  45.677  1.00 71.85 LIG 0.16  HD
ATOM     42 O    ALA G   4      13.439  40.525  46.235  1.00 72.80 LIG-0.27  OA
BRANCH 40 43
ATOM     43  CA  ALA G   5      12.170  38.304  47.393  1.00 72.89 LIG 0.17  C 
ATOM     44  CB  ALA G   5      13.649  37.952  47.484  1.00 72.65 LIG 0.04  C 
BRANCH 43 45
ATOM     45  C   ALA G   5      11.766  39.214  48.558  1.00 72.87 LIG 0.24  C 
ATOM     46  N   THR G   6      11.958  40.526  48.394  1.00 71.86 LIG-0.34  N 
ATOM     47 H    THR G   6      12.303  40.872  47.686  1.00 71.86 LIG 0.16  HD
ATOM     48 O    ALA G   5      11.289  38.727  49.585  1.00 74.40 LIG-0.27  OA
BRANCH 46 49
ATOM     49  CA  THR G   6      11.589  41.509  49.427  1.00 72.17 LIG 0.20  C 
BRANCH 49 50
ATOM     50  CB  THR G   6      10.071  41.805  49.443  1.00 71.29 LIG 0.15  C 
ATOM     51  CG2 THR G   6       9.583  42.217  48.056  1.00 70.64 LIG 0.04  C 
BRANCH 50 52
ATOM     52 OG1  THR G   6       9.350  40.646  49.880  1.00 70.47 LIG-0.39  OA
ATOM     53 HG1  THR G   6       9.750  39.954  49.623  1.00 70.47 LIG 0.21  HD
ENDBRANCH 50 52
ENDBRANCH 49 50
BRANCH 49 54
ATOM     54  C   THR G   6      12.029  41.077  50.833  1.00 73.53 LIG 0.24  C 
ATOM     55  N   ALA G   7      13.343  40.948  51.042  1.00 73.25 LIG-0.35  N 
ATOM     56 H    ALA G   7      13.929  41.011  50.415  1.00 73.25 LIG 0.16  HD
ATOM     57 O    THR G   6      11.182  40.856  51.701  1.00 75.15 LIG-0.27  OA
BRANCH 55 58
ATOM     58  CA  ALA G   7      13.922  40.683  52.367  1.00 74.45 LIG 0.16  C 
ATOM     59  CB  ALA G   7      13.667  39.241  52.781  1.00 73.04 LIG 0.04  C 
BRANCH 58 60
ATOM     60  C   ALA G   7      15.423  40.973  52.368  1.00 76.13 LIG 0.22  C 
ATOM     61 O    ALA G   7      15.990  41.391  51.357  1.00 77.97 LIG-0.29  OA
ENDBRANCH 58 60
ENDBRANCH 55 58
ENDBRANCH 49 54
ENDBRANCH 46 49
ENDBRANCH 43 45
ENDBRANCH 40 43
ENDBRANCH 37 39
ENDBRANCH 34 37
ENDBRANCH 1 33
TORSDOF 22
ENDMDL
MODEL 63
USER: ADFR SOLUTION from run 39
USER: SCORE 16.173198 LL:  -3.589 LR: -14.500 RR:   0.000 FEB:  -7.937
USER: RMSD 3.483171
USER: SEED 38
USER: STATUS no improvement in best in 5 clusters for 5 generations
USER: GENES 24
USER: genes 0 Translation |==|  0.32227 0.44858 0.46125
USER: genes 1 Rotation |==|  0.67163 0.53459 0.57143 0.96287
USER: genes 2 Torsion [CB]-CA--N-[C] |==|  0.18852
USER: genes 3 Torsion [N]-C--CA-[N] |==|  0.47395
USER: genes 4 Torsion [C]-CA--N-[C] |==|  0.77058
USER: genes 5 Torsion [N]-C--CA-[N] |==|  0.27510
USER: genes 6 Torsion [C]-CA--N-[H1] |==|  0.57468
USER: genes 7 Torsion [C]-CA--CB-[CG] |==|  0.50571
USER: genes 8 Torsion [CA]-CB--CG-[CD] |==|  0.34136
USER: genes 9 Torsion [CB]-CG--CD-[NE] |==|  0.57272
USER: genes 10 Torsion [CG]-CD--NE-[CZ] |==|  0.52847
USER: genes 11 Torsion [N]-CA--CB-[OG1] |==|  0.53429
USER: genes 12 Torsion [CA]-CB--OG1-[HG1] |==|  0.50940
USER: genes 13 Torsion [N]-CA--C-[N] |==|  0.56688
USER: genes 14 Torsion [C]-N--CA-[CB] |==|  0.78706
USER: genes 15 Torsion [N]-CA--C-[N] |==|  0.14905
USER: genes 16 Torsion [C]-N--CA-[CB] |==|  0.86869
USER: genes 17 Torsion [N]-CA--C-[N] |==|  0.92766
USER: genes 18 Torsion [C]-N--CA-[CB] |==|  0.54444
USER: genes 19 Torsion [N]-CA--CB-[CG2] |==|  0.45724
USER: genes 20 Torsion [CA]-CB--OG1-[HG1] |==|  0.61503
USER: genes 21 Torsion [N]-CA--C-[N] |==|  0.35556
USER: genes 22 Torsion [C]-N--CA-[C] |==|  0.64586
USER: genes 23 Torsion [N]-CA--C-[O] |==|  0.16903
ROOT
ATOM      1  CA  THR G   3      14.139  37.229  42.378  1.00 68.23 LIG 0.20  C 
ENDROOT
BRANCH 1 2
ATOM      2  N   THR G   3      15.538  37.472  42.043  1.00 68.42 LIG-0.34  N 
ATOM      3  C   ARG G   2      15.982  37.565  40.792  1.00 70.38 LIG 0.24  C 
ATOM      4 O    ARG G   2      15.282  37.346  39.797  1.00 69.46 LIG-0.27  OA
ATOM      5 H    THR G   3      16.049  37.551  42.730  1.00 68.42 LIG 0.16  HD
BRANCH 3 6
ATOM      6  CA  ARG G   2      17.454  37.936  40.641  1.00 72.62 LIG 0.18  C 
BRANCH 6 7
ATOM      7  N   ARG G   2      17.846  37.780  39.243  1.00 74.86 LIG-0.35  N 
ATOM      8  C   ALA G   1      18.189  36.601  38.730  1.00 76.29 LIG 0.25  C 
ATOM      9 O    ALA G   1      18.377  35.589  39.412  1.00 75.70 LIG-0.27  OA
ATOM     10 H    ARG G   2      17.834  38.512  38.790  1.00 74.86 LIG 0.16  HD
BRANCH 8 11
ATOM     11  CA  ALA G   1      18.358  36.555  37.220  1.00 78.97 LIG 0.27  C 
ATOM     12  CB  ALA G   1      17.747  35.271  36.670  1.00 79.33 LIG 0.05  C 
BRANCH 11 13
ATOM     13  N   ALA G   1      19.797  36.654  36.850  1.00 81.42 LIG-0.07  N 
ATOM     14 H3   ALA G   1      20.161  35.842  36.853  1.00 81.42 LIG 0.28  HD
ATOM     15 H2   ALA G   1      20.219  37.171  37.438  1.00 81.42 LIG 0.28  HD
ATOM     16 H1   ALA G   1      19.871  37.009  36.037  1.00 81.42 LIG 0.28  HD
ENDBRANCH 11 13
ENDBRANCH 8 11
ENDBRANCH 6 7
BRANCH 6 17
ATOM     17  CB  ARG G   2      17.708  39.367  41.124  1.00 73.45 LIG 0.04  C 
BRANCH 17 18
ATOM     18  CG  ARG G   2      19.151  39.810  40.951  1.00 75.79 LIG 0.02  C 
BRANCH 18 19
ATOM     19  CD  ARG G   2      19.273  41.068  40.106  1.00 77.52 LIG 0.14  C 
BRANCH 19 20
ATOM     20  NE  ARG G   2      20.578  41.140  39.442  1.00 80.25 LIG-0.23  N 
ATOM     21  CZ  ARG G   2      21.063  42.203  38.793  1.00 82.01 LIG 0.67  C 
ATOM     22  NH1 ARG G   2      20.368  43.338  38.690  1.00 81.47 LIG-0.23  N 
ATOM     23  NH2 ARG G   2      22.267  42.130  38.230  1.00 84.93 LIG-0.23  N 
ATOM     24 1HH1 ARG G   2      19.587  43.397  39.045  1.00 81.47 LIG 0.17  HD
ATOM     25 2HH1 ARG G   2      20.701  44.009  38.267  1.00 81.47 LIG 0.17  HD
ATOM     26 2HH2 ARG G   2      22.588  42.808  37.811  1.00 84.93 LIG 0.17  HD
ATOM     27 1HH2 ARG G   2      22.725  41.403  38.286  1.00 84.93 LIG 0.17  HD
ATOM     28 HE   ARG G   2      21.074  40.438  39.473  1.00 80.25 LIG 0.18  HD
ENDBRANCH 19 20
ENDBRANCH 18 19
ENDBRANCH 17 18
ENDBRANCH 6 17
ENDBRANCH 3 6
ENDBRANCH 1 2
BRANCH 1 29
ATOM     29  CB  THR G   3      13.686  35.807  41.968  1.00 68.23 LIG 0.15  C 
ATOM     30  CG2 THR G   3      14.320  34.760  42.865  1.00 68.63 LIG 0.04  C 
BRANCH 29 31
ATOM     31 OG1  THR G   3      12.259  35.702  42.045  1.00 67.51 LIG-0.39  OA
ATOM     32 HG1  THR G   3      12.026  34.916  41.866  1.00 67.51 LIG 0.21  HD
ENDBRANCH 29 31
ENDBRANCH 1 29
BRANCH 1 33
ATOM     33  C   THR G   3      13.913  37.416  43.875  1.00 68.02 LIG 0.24  C 
ATOM     34  N   ALA G   4      12.868  36.769  44.388  1.00 68.86 LIG-0.35  N 
ATOM     35 H    ALA G   4      12.316  36.311  43.914  1.00 68.86 LIG 0.16  HD
ATOM     36 O    THR G   3      14.664  38.130  44.542  1.00 67.54 LIG-0.27  OA
BRANCH 34 37
ATOM     37  CA  ALA G   4      12.559  36.776  45.820  1.00 69.75 LIG 0.17  C 
ATOM     38  CB  ALA G   4      13.497  35.839  46.562  1.00 70.86 LIG 0.04  C 
BRANCH 37 39
ATOM     39  C   ALA G   4      12.615  38.181  46.434  1.00 71.43 LIG 0.24  C 
ATOM     40  N   ALA G   5      11.880  39.125  45.841  1.00 71.85 LIG-0.35  N 
ATOM     41 H    ALA G   5      11.436  38.995  45.116  1.00 71.85 LIG 0.16  HD
ATOM     42 O    ALA G   4      13.315  38.396  47.428  1.00 72.80 LIG-0.27  OA
BRANCH 40 43
ATOM     43  CA  ALA G   5      11.761  40.485  46.379  1.00 72.89 LIG 0.17  C 
ATOM     44  CB  ALA G   5      11.467  40.444  47.872  1.00 72.65 LIG 0.04  C 
BRANCH 43 45
ATOM     45  C   ALA G   5      13.014  41.324  46.105  1.00 72.87 LIG 0.24  C 
ATOM     46  N   THR G   6      14.162  40.659  45.950  1.00 71.86 LIG-0.34  N 
ATOM     47 H    THR G   6      14.230  39.804  46.010  1.00 71.86 LIG 0.16  HD
ATOM     48 O    ALA G   5      12.932  42.552  46.037  1.00 74.40 LIG-0.27  OA
BRANCH 46 49
ATOM     49  CA  THR G   6      15.433  41.345  45.658  1.00 72.17 LIG 0.20  C 
BRANCH 49 50
ATOM     50  CB  THR G   6      16.519  40.375  45.139  1.00 71.29 LIG 0.15  C 
ATOM     51  CG2 THR G   6      17.672  41.143  44.496  1.00 70.64 LIG 0.04  C 
BRANCH 50 52
ATOM     52 OG1  THR G   6      17.019  39.575  46.217  1.00 70.47 LIG-0.39  OA
ATOM     53 HG1  THR G   6      17.853  39.502  46.150  1.00 70.47 LIG 0.21  HD
ENDBRANCH 50 52
ENDBRANCH 49 50
BRANCH 49 54
ATOM     54  C   THR G   6      15.264  42.493  44.653  1.00 73.53 LIG 0.24  C 
ATOM     55  N   ALA G   7      15.758  43.684  45.007  1.00 73.25 LIG-0.35  N 
ATOM     56 H    ALA G   7      16.080  43.848  45.787  1.00 73.25 LIG 0.16  HD
ATOM     57 O    THR G   6      14.683  42.293  43.584  1.00 75.15 LIG-0.27  OA
BRANCH 55 58
ATOM     58  CA  ALA G   7      15.800  44.837  44.096  1.00 74.45 LIG 0.16  C 
ATOM     59  CB  ALA G   7      14.810  45.904  44.542  1.00 73.04 LIG 0.04  C 
BRANCH 58 60
ATOM     60  C   ALA G   7      17.211  45.422  44.031  1.00 76.13 LIG 0.22  C 
ATOM     61 O    ALA G   7      18.161  44.746  43.633  1.00 77.97 LIG-0.29  OA
ENDBRANCH 58 60
ENDBRANCH 55 58
ENDBRANCH 49 54
ENDBRANCH 46 49
ENDBRANCH 43 45
ENDBRANCH 40 43
ENDBRANCH 37 39
ENDBRANCH 34 37
ENDBRANCH 1 33
TORSDOF 22
ENDMDL
MODEL 64
USER: ADFR SOLUTION from run 155
USER: SCORE 16.629083 LL:  -3.253 LR: -14.496 RR:   0.000 FEB:  -7.934
USER: RMSD 3.772975
USER: SEED 154
USER: STATUS no improvement in best in 19 clusters for 5 generations
USER: GENES 24
USER: genes 0 Translation |==|  0.33718 0.43400 0.40184
USER: genes 1 Rotation |==|  0.46617 0.55461 0.40646 0.98695
USER: genes 2 Torsion [CB]-CA--N-[C] |==|  0.48936
USER: genes 3 Torsion [N]-C--CA-[N] |==|  0.40364
USER: genes 4 Torsion [C]-CA--N-[C] |==|  0.82572
USER: genes 5 Torsion [N]-C--CA-[N] |==|  0.99085
USER: genes 6 Torsion [C]-CA--N-[H1] |==|  0.38679
USER: genes 7 Torsion [C]-CA--CB-[CG] |==|  0.72238
USER: genes 8 Torsion [CA]-CB--CG-[CD] |==|  0.70454
USER: genes 9 Torsion [CB]-CG--CD-[NE] |==|  0.37289
USER: genes 10 Torsion [CG]-CD--NE-[CZ] |==|  0.15989
USER: genes 11 Torsion [N]-CA--CB-[OG1] |==|  0.37431
USER: genes 12 Torsion [CA]-CB--OG1-[HG1] |==|  0.44849
USER: genes 13 Torsion [N]-CA--C-[N] |==|  0.47109
USER: genes 14 Torsion [C]-N--CA-[CB] |==|  0.55423
USER: genes 15 Torsion [N]-CA--C-[N] |==|  0.42731
USER: genes 16 Torsion [C]-N--CA-[CB] |==|  0.53643
USER: genes 17 Torsion [N]-CA--C-[N] |==|  0.41210
USER: genes 18 Torsion [C]-N--CA-[CB] |==|  0.86111
USER: genes 19 Torsion [N]-CA--CB-[CG2] |==|  0.42257
USER: genes 20 Torsion [CA]-CB--OG1-[HG1] |==|  0.31150
USER: genes 21 Torsion [N]-CA--C-[N] |==|  0.88454
USER: genes 22 Torsion [C]-N--CA-[C] |==|  0.74475
USER: genes 23 Torsion [N]-CA--C-[O] |==|  0.98708
ROOT
ATOM      1  CA  THR G   3      14.475  36.966  41.175  1.00 68.23 LIG 0.20  C 
ENDROOT
BRANCH 1 2
ATOM      2  N   THR G   3      15.615  36.102  40.886  1.00 68.42 LIG-0.34  N 
ATOM      3  C   ARG G   2      16.645  36.483  40.135  1.00 70.38 LIG 0.24  C 
ATOM      4 O    ARG G   2      16.689  37.556  39.523  1.00 69.46 LIG-0.27  OA
ATOM      5 H    THR G   3      15.557  35.323  41.246  1.00 68.42 LIG 0.16  HD
BRANCH 3 6
ATOM      6  CA  ARG G   2      17.794  35.484  40.039  1.00 72.62 LIG 0.18  C 
BRANCH 6 7
ATOM      7  N   ARG G   2      18.383  35.559  38.705  1.00 74.86 LIG-0.35  N 
ATOM      8  C   ALA G   1      17.691  35.258  37.608  1.00 76.29 LIG 0.25  C 
ATOM      9 O    ALA G   1      16.575  34.731  37.628  1.00 75.70 LIG-0.27  OA
ATOM     10 H    ARG G   2      19.205  35.811  38.696  1.00 74.86 LIG 0.16  HD
BRANCH 8 11
ATOM     11  CA  ALA G   1      18.363  35.593  36.285  1.00 78.97 LIG 0.27  C 
ATOM     12  CB  ALA G   1      18.562  34.320  35.470  1.00 79.33 LIG 0.05  C 
BRANCH 11 13
ATOM     13  N   ALA G   1      19.664  36.279  36.517  1.00 81.42 LIG-0.07  N 
ATOM     14 H3   ALA G   1      19.939  36.122  37.349  1.00 81.42 LIG 0.28  HD
ATOM     15 H2   ALA G   1      19.562  37.155  36.398  1.00 81.42 LIG 0.28  HD
ATOM     16 H1   ALA G   1      20.269  35.970  35.942  1.00 81.42 LIG 0.28  HD
ENDBRANCH 11 13
ENDBRANCH 8 11
ENDBRANCH 6 7
BRANCH 6 17
ATOM     17  CB  ARG G   2      18.848  35.759  41.117  1.00 73.45 LIG 0.04  C 
BRANCH 17 18
ATOM     18  CG  ARG G   2      20.051  36.525  40.596  1.00 75.79 LIG 0.02  C 
BRANCH 18 19
ATOM     19  CD  ARG G   2      21.283  35.644  40.458  1.00 77.52 LIG 0.14  C 
BRANCH 19 20
ATOM     20  NE  ARG G   2      21.955  35.863  39.174  1.00 80.25 LIG-0.23  N 
ATOM     21  CZ  ARG G   2      22.422  37.034  38.730  1.00 82.01 LIG 0.67  C 
ATOM     22  NH1 ARG G   2      22.308  38.152  39.451  1.00 81.47 LIG-0.23  N 
ATOM     23  NH2 ARG G   2      23.010  37.092  37.538  1.00 84.93 LIG-0.23  N 
ATOM     24 1HH1 ARG G   2      21.927  38.130  40.222  1.00 81.47 LIG 0.17  HD
ATOM     25 2HH1 ARG G   2      22.617  38.894  39.145  1.00 81.47 LIG 0.17  HD
ATOM     26 2HH2 ARG G   2      23.314  37.841  37.244  1.00 84.93 LIG 0.17  HD
ATOM     27 1HH2 ARG G   2      23.087  36.380  37.061  1.00 84.93 LIG 0.17  HD
ATOM     28 HE   ARG G   2      22.057  35.179  38.663  1.00 80.25 LIG 0.18  HD
ENDBRANCH 19 20
ENDBRANCH 18 19
ENDBRANCH 17 18
ENDBRANCH 6 17
ENDBRANCH 3 6
ENDBRANCH 1 2
BRANCH 1 29
ATOM     29  CB  THR G   3      13.385  36.230  41.991  1.00 68.23 LIG 0.15  C 
ATOM     30  CG2 THR G   3      13.922  34.928  42.555  1.00 68.63 LIG 0.04  C 
BRANCH 29 31
ATOM     31 OG1  THR G   3      12.927  37.062  43.065  1.00 67.51 LIG-0.39  OA
ATOM     32 HG1  THR G   3      12.185  36.781  43.340  1.00 67.51 LIG 0.21  HD
ENDBRANCH 29 31
ENDBRANCH 1 29
BRANCH 1 33
ATOM     33  C   THR G   3      14.929  38.203  41.943  1.00 68.02 LIG 0.24  C 
ATOM     34  N   ALA G   4      14.021  39.167  42.077  1.00 68.86 LIG-0.35  N 
ATOM     35 H    ALA G   4      13.240  39.135  41.719  1.00 68.86 LIG 0.16  HD
ATOM     36 O    THR G   3      16.072  38.280  42.397  1.00 67.54 LIG-0.27  OA
BRANCH 34 37
ATOM     37  CA  ALA G   4      14.268  40.385  42.855  1.00 69.75 LIG 0.17  C 
ATOM     38  CB  ALA G   4      12.950  41.044  43.225  1.00 70.86 LIG 0.04  C 
BRANCH 37 39
ATOM     39  C   ALA G   4      15.106  40.126  44.114  1.00 71.43 LIG 0.24  C 
ATOM     40  N   ALA G   5      15.823  41.152  44.578  1.00 71.85 LIG-0.35  N 
ATOM     41 H    ALA G   5      15.880  41.911  44.178  1.00 71.85 LIG 0.16  HD
ATOM     42 O    ALA G   4      15.093  39.014  44.649  1.00 72.80 LIG-0.27  OA
BRANCH 40 43
ATOM     43  CA  ALA G   5      16.590  41.076  45.827  1.00 72.89 LIG 0.17  C 
ATOM     44  CB  ALA G   5      17.034  42.466  46.264  1.00 72.65 LIG 0.04  C 
BRANCH 43 45
ATOM     45  C   ALA G   5      15.799  40.393  46.947  1.00 72.87 LIG 0.24  C 
ATOM     46  N   THR G   6      16.503  39.697  47.844  1.00 71.86 LIG-0.34  N 
ATOM     47 H    THR G   6      17.358  39.606  47.813  1.00 71.86 LIG 0.16  HD
ATOM     48 O    ALA G   5      14.572  40.500  46.992  1.00 74.40 LIG-0.27  OA
BRANCH 46 49
ATOM     49  CA  THR G   6      15.867  39.014  48.984  1.00 72.17 LIG 0.20  C 
BRANCH 49 50
ATOM     50  CB  THR G   6      14.908  39.943  49.766  1.00 71.29 LIG 0.15  C 
ATOM     51  CG2 THR G   6      13.800  39.137  50.439  1.00 70.64 LIG 0.04  C 
BRANCH 50 52
ATOM     52 OG1  THR G   6      15.637  40.677  50.757  1.00 70.47 LIG-0.39  OA
ATOM     53 HG1  THR G   6      15.649  41.491  50.550  1.00 70.47 LIG 0.21  HD
ENDBRANCH 50 52
ENDBRANCH 49 50
BRANCH 49 54
ATOM     54  C   THR G   6      15.105  37.750  48.562  1.00 73.53 LIG 0.24  C 
ATOM     55  N   ALA G   7      14.384  37.825  47.438  1.00 73.25 LIG-0.35  N 
ATOM     56 H    ALA G   7      14.265  38.557  47.003  1.00 73.25 LIG 0.16  HD
ATOM     57 O    THR G   6      15.167  36.734  49.258  1.00 75.15 LIG-0.27  OA
BRANCH 55 58
ATOM     58  CA  ALA G   7      13.720  36.662  46.832  1.00 74.45 LIG 0.16  C 
ATOM     59  CB  ALA G   7      12.410  37.079  46.179  1.00 73.04 LIG 0.04  C 
BRANCH 58 60
ATOM     60  C   ALA G   7      14.632  35.995  45.804  1.00 76.13 LIG 0.22  C 
ATOM     61 O    ALA G   7      15.725  36.484  45.512  1.00 77.97 LIG-0.29  OA
ENDBRANCH 58 60
ENDBRANCH 55 58
ENDBRANCH 49 54
ENDBRANCH 46 49
ENDBRANCH 43 45
ENDBRANCH 40 43
ENDBRANCH 37 39
ENDBRANCH 34 37
ENDBRANCH 1 33
TORSDOF 22
ENDMDL
MODEL 65
USER: ADFR SOLUTION from run 188
USER: SCORE 16.421708 LL:  -3.910 LR: -14.494 RR:   0.000 FEB:  -7.931
USER: RMSD 3.746856
USER: SEED 187
USER: STATUS searching
USER: GENES 24
USER: genes 0 Translation |==|  0.32206 0.47219 0.44571
USER: genes 1 Rotation |==|  0.55587 0.53998 0.55750 0.99191
USER: genes 2 Torsion [CB]-CA--N-[C] |==|  0.22766
USER: genes 3 Torsion [N]-C--CA-[N] |==|  0.51305
USER: genes 4 Torsion [C]-CA--N-[C] |==|  0.75386
USER: genes 5 Torsion [N]-C--CA-[N] |==|  0.27120
USER: genes 6 Torsion [C]-CA--N-[H1] |==|  0.03402
USER: genes 7 Torsion [C]-CA--CB-[CG] |==|  0.51429
USER: genes 8 Torsion [CA]-CB--CG-[CD] |==|  0.91605
USER: genes 9 Torsion [CB]-CG--CD-[NE] |==|  0.40719
USER: genes 10 Torsion [CG]-CD--NE-[CZ] |==|  0.58186
USER: genes 11 Torsion [N]-CA--CB-[OG1] |==|  0.45243
USER: genes 12 Torsion [CA]-CB--OG1-[HG1] |==|  0.98589
USER: genes 13 Torsion [N]-CA--C-[N] |==|  0.39979
USER: genes 14 Torsion [C]-N--CA-[CB] |==|  0.84727
USER: genes 15 Torsion [N]-CA--C-[N] |==|  0.44228
USER: genes 16 Torsion [C]-N--CA-[CB] |==|  0.49505
USER: genes 17 Torsion [N]-CA--C-[N] |==|  0.41676
USER: genes 18 Torsion [C]-N--CA-[CB] |==|  0.86095
USER: genes 19 Torsion [N]-CA--CB-[CG2] |==|  0.47284
USER: genes 20 Torsion [CA]-CB--OG1-[HG1] |==|  0.78514
USER: genes 21 Torsion [N]-CA--C-[N] |==|  0.89116
USER: genes 22 Torsion [C]-N--CA-[C] |==|  0.72193
USER: genes 23 Torsion [N]-CA--C-[O] |==|  0.65754
ROOT
ATOM      1  CA  THR G   3      14.134  37.653  42.064  1.00 68.23 LIG 0.20  C 
ENDROOT
BRANCH 1 2
ATOM      2  N   THR G   3      15.550  37.687  41.711  1.00 68.42 LIG-0.34  N 
ATOM      3  C   ARG G   2      16.002  37.437  40.485  1.00 70.38 LIG 0.24  C 
ATOM      4 O    ARG G   2      15.285  37.047  39.556  1.00 69.46 LIG-0.27  OA
ATOM      5 H    THR G   3      16.065  37.884  42.371  1.00 68.42 LIG 0.16  HD
BRANCH 3 6
ATOM      6  CA  ARG G   2      17.501  37.632  40.282  1.00 72.62 LIG 0.18  C 
BRANCH 6 7
ATOM      7  N   ARG G   2      17.824  37.430  38.873  1.00 74.86 LIG-0.35  N 
ATOM      8  C   ALA G   1      18.124  36.231  38.379  1.00 76.29 LIG 0.25  C 
ATOM      9 O    ALA G   1      18.326  35.235  39.080  1.00 75.70 LIG-0.27  OA
ATOM     10 H    ARG G   2      17.803  38.149  38.400  1.00 74.86 LIG 0.16  HD
BRANCH 8 11
ATOM     11  CA  ALA G   1      18.220  36.140  36.864  1.00 78.97 LIG 0.27  C 
ATOM     12  CB  ALA G   1      17.594  34.835  36.384  1.00 79.33 LIG 0.05  C 
BRANCH 11 13
ATOM     13  N   ALA G   1      19.639  36.236  36.423  1.00 81.42 LIG-0.07  N 
ATOM     14 H3   ALA G   1      19.777  37.027  36.038  1.00 81.42 LIG 0.28  HD
ATOM     15 H2   ALA G   1      19.813  35.588  35.838  1.00 81.42 LIG 0.28  HD
ATOM     16 H1   ALA G   1      20.176  36.152  37.128  1.00 81.42 LIG 0.28  HD
ENDBRANCH 11 13
ENDBRANCH 8 11
ENDBRANCH 6 7
BRANCH 6 17
ATOM     17  CB  ARG G   2      17.938  39.024  40.750  1.00 73.45 LIG 0.04  C 
BRANCH 17 18
ATOM     18  CG  ARG G   2      19.399  39.321  40.458  1.00 75.79 LIG 0.02  C 
BRANCH 18 19
ATOM     19  CD  ARG G   2      20.259  38.067  40.474  1.00 77.52 LIG 0.14  C 
BRANCH 19 20
ATOM     20  NE  ARG G   2      21.353  38.159  39.504  1.00 80.25 LIG-0.23  N 
ATOM     21  CZ  ARG G   2      21.920  37.127  38.870  1.00 82.01 LIG 0.67  C 
ATOM     22  NH1 ARG G   2      21.519  35.871  39.079  1.00 81.47 LIG-0.23  N 
ATOM     23  NH2 ARG G   2      22.912  37.354  38.012  1.00 84.93 LIG-0.23  N 
ATOM     24 1HH1 ARG G   2      20.882  35.710  39.634  1.00 81.47 LIG 0.17  HD
ATOM     25 2HH1 ARG G   2      21.898  35.223  38.659  1.00 81.47 LIG 0.17  HD
ATOM     26 2HH2 ARG G   2      23.283  36.697  37.599  1.00 84.93 LIG 0.17  HD
ATOM     27 1HH2 ARG G   2      23.183  38.158  37.870  1.00 84.93 LIG 0.17  HD
ATOM     28 HE   ARG G   2      21.657  38.944  39.327  1.00 80.25 LIG 0.18  HD
ENDBRANCH 19 20
ENDBRANCH 18 19
ENDBRANCH 17 18
ENDBRANCH 6 17
ENDBRANCH 3 6
ENDBRANCH 1 2
BRANCH 1 29
ATOM     29  CB  THR G   3      13.642  36.213  42.337  1.00 68.23 LIG 0.15  C 
ATOM     30  CG2 THR G   3      14.668  35.436  43.141  1.00 68.63 LIG 0.04  C 
BRANCH 29 31
ATOM     31 OG1  THR G   3      12.399  36.243  43.050  1.00 67.51 LIG-0.39  OA
ATOM     32 HG1  THR G   3      12.208  37.037  43.246  1.00 67.51 LIG 0.21  HD
ENDBRANCH 29 31
ENDBRANCH 1 29
BRANCH 1 33
ATOM     33  C   THR G   3      13.875  38.515  43.294  1.00 68.02 LIG 0.24  C 
ATOM     34  N   ALA G   4      12.718  39.175  43.306  1.00 68.86 LIG-0.35  N 
ATOM     35 H    ALA G   4      12.162  39.167  42.650  1.00 68.86 LIG 0.16  HD
ATOM     36 O    THR G   3      14.703  38.582  44.205  1.00 67.54 LIG-0.27  OA
BRANCH 34 37
ATOM     37  CA  ALA G   4      12.278  39.982  44.448  1.00 69.75 LIG 0.17  C 
ATOM     38  CB  ALA G   4      12.280  39.140  45.713  1.00 70.86 LIG 0.04  C 
BRANCH 37 39
ATOM     39  C   ALA G   4      13.127  41.244  44.646  1.00 71.43 LIG 0.24  C 
ATOM     40  N   ALA G   5      12.576  42.233  45.352  1.00 71.85 LIG-0.35  N 
ATOM     41 H    ALA G   5      11.766  42.216  45.640  1.00 71.85 LIG 0.16  HD
ATOM     42 O    ALA G   4      14.262  41.309  44.165  1.00 72.80 LIG-0.27  OA
BRANCH 40 43
ATOM     43  CA  ALA G   5      13.309  43.454  45.704  1.00 72.89 LIG 0.17  C 
ATOM     44  CB  ALA G   5      12.409  44.415  46.470  1.00 72.65 LIG 0.04  C 
BRANCH 43 45
ATOM     45  C   ALA G   5      14.576  43.153  46.512  1.00 72.87 LIG 0.24  C 
ATOM     46  N   THR G   6      15.597  44.002  46.371  1.00 71.86 LIG-0.34  N 
ATOM     47 H    THR G   6      15.581  44.685  45.849  1.00 71.86 LIG 0.16  HD
ATOM     48 O    ALA G   5      14.618  42.166  47.248  1.00 74.40 LIG-0.27  OA
BRANCH 46 49
ATOM     49  CA  THR G   6      16.861  43.840  47.110  1.00 72.17 LIG 0.20  C 
BRANCH 49 50
ATOM     50  CB  THR G   6      16.634  43.636  48.626  1.00 71.29 LIG 0.15  C 
ATOM     51  CG2 THR G   6      17.933  43.234  49.321  1.00 70.64 LIG 0.04  C 
BRANCH 50 52
ATOM     52 OG1  THR G   6      16.130  44.842  49.213  1.00 70.47 LIG-0.39  OA
ATOM     53 HG1  THR G   6      16.759  45.390  49.312  1.00 70.47 LIG 0.21  HD
ENDBRANCH 50 52
ENDBRANCH 49 50
BRANCH 49 54
ATOM     54  C   THR G   6      17.713  42.682  46.571  1.00 73.53 LIG 0.24  C 
ATOM     55  N   ALA G   7      17.063  41.575  46.200  1.00 73.25 LIG-0.35  N 
ATOM     56 H    ALA G   7      16.220  41.457  46.328  1.00 73.25 LIG 0.16  HD
ATOM     57 O    THR G   6      18.940  42.798  46.511  1.00 75.15 LIG-0.27  OA
BRANCH 55 58
ATOM     58  CA  ALA G   7      17.723  40.442  45.535  1.00 74.45 LIG 0.16  C 
ATOM     59  CB  ALA G   7      17.228  39.124  46.112  1.00 73.04 LIG 0.04  C 
BRANCH 58 60
ATOM     60  C   ALA G   7      17.476  40.483  44.027  1.00 76.13 LIG 0.22  C 
ATOM     61 O    ALA G   7      16.958  39.530  43.442  1.00 77.97 LIG-0.29  OA
ENDBRANCH 58 60
ENDBRANCH 55 58
ENDBRANCH 49 54
ENDBRANCH 46 49
ENDBRANCH 43 45
ENDBRANCH 40 43
ENDBRANCH 37 39
ENDBRANCH 34 37
ENDBRANCH 1 33
TORSDOF 22
ENDMDL
MODEL 66
USER: ADFR SOLUTION from run 188
USER: SCORE 16.658469 LL:  -3.528 LR: -14.491 RR:   0.000 FEB:  -7.928
USER: RMSD 4.528854
USER: SEED 187
USER: STATUS searching
USER: GENES 24
USER: genes 0 Translation |==|  0.32208 0.47219 0.44572
USER: genes 1 Rotation |==|  0.55612 0.53993 0.55735 0.99190
USER: genes 2 Torsion [CB]-CA--N-[C] |==|  0.22766
USER: genes 3 Torsion [N]-C--CA-[N] |==|  0.51299
USER: genes 4 Torsion [C]-CA--N-[C] |==|  0.75392
USER: genes 5 Torsion [N]-C--CA-[N] |==|  0.27126
USER: genes 6 Torsion [C]-CA--N-[H1] |==|  0.03400
USER: genes 7 Torsion [C]-CA--CB-[CG] |==|  0.51441
USER: genes 8 Torsion [CA]-CB--CG-[CD] |==|  0.91612
USER: genes 9 Torsion [CB]-CG--CD-[NE] |==|  0.40715
USER: genes 10 Torsion [CG]-CD--NE-[CZ] |==|  0.58189
USER: genes 11 Torsion [N]-CA--CB-[OG1] |==|  0.45238
USER: genes 12 Torsion [CA]-CB--OG1-[HG1] |==|  0.03824
USER: genes 13 Torsion [N]-CA--C-[N] |==|  0.98960
USER: genes 14 Torsion [C]-N--CA-[CB] |==|  0.86310
USER: genes 15 Torsion [N]-CA--C-[N] |==|  0.85161
USER: genes 16 Torsion [C]-N--CA-[CB] |==|  0.52618
USER: genes 17 Torsion [N]-CA--C-[N] |==|  0.46794
USER: genes 18 Torsion [C]-N--CA-[CB] |==|  0.17206
USER: genes 19 Torsion [N]-CA--CB-[CG2] |==|  0.69308
USER: genes 20 Torsion [CA]-CB--OG1-[HG1] |==|  0.79103
USER: genes 21 Torsion [N]-CA--C-[N] |==|  0.10360
USER: genes 22 Torsion [C]-N--CA-[C] |==|  0.70292
USER: genes 23 Torsion [N]-CA--C-[O] |==|  0.98675
ROOT
ATOM      1  CA  THR G   3      14.135  37.653  42.064  1.00 68.23 LIG 0.20  C 
ENDROOT
BRANCH 1 2
ATOM      2  N   THR G   3      15.551  37.687  41.711  1.00 68.42 LIG-0.34  N 
ATOM      3  C   ARG G   2      16.002  37.437  40.485  1.00 70.38 LIG 0.24  C 
ATOM      4 O    ARG G   2      15.285  37.049  39.555  1.00 69.46 LIG-0.27  OA
ATOM      5 H    THR G   3      16.066  37.882  42.371  1.00 68.42 LIG 0.16  HD
BRANCH 3 6
ATOM      6  CA  ARG G   2      17.501  37.632  40.282  1.00 72.62 LIG 0.18  C 
BRANCH 6 7
ATOM      7  N   ARG G   2      17.824  37.431  38.873  1.00 74.86 LIG-0.35  N 
ATOM      8  C   ALA G   1      18.123  36.231  38.378  1.00 76.29 LIG 0.25  C 
ATOM      9 O    ALA G   1      18.324  35.235  39.079  1.00 75.70 LIG-0.27  OA
ATOM     10 H    ARG G   2      17.804  38.149  38.401  1.00 74.86 LIG 0.16  HD
BRANCH 8 11
ATOM     11  CA  ALA G   1      18.219  36.140  36.863  1.00 78.97 LIG 0.27  C 
ATOM     12  CB  ALA G   1      17.591  34.837  36.382  1.00 79.33 LIG 0.05  C 
BRANCH 11 13
ATOM     13  N   ALA G   1      19.638  36.236  36.422  1.00 81.42 LIG-0.07  N 
ATOM     14 H3   ALA G   1      19.778  37.027  36.038  1.00 81.42 LIG 0.28  HD
ATOM     15 H2   ALA G   1      19.811  35.587  35.838  1.00 81.42 LIG 0.28  HD
ATOM     16 H1   ALA G   1      20.175  36.150  37.127  1.00 81.42 LIG 0.28  HD
ENDBRANCH 11 13
ENDBRANCH 8 11
ENDBRANCH 6 7
BRANCH 6 17
ATOM     17  CB  ARG G   2      17.939  39.023  40.751  1.00 73.45 LIG 0.04  C 
BRANCH 17 18
ATOM     18  CG  ARG G   2      19.400  39.320  40.458  1.00 75.79 LIG 0.02  C 
BRANCH 18 19
ATOM     19  CD  ARG G   2      20.260  38.065  40.472  1.00 77.52 LIG 0.14  C 
BRANCH 19 20
ATOM     20  NE  ARG G   2      21.353  38.157  39.501  1.00 80.25 LIG-0.23  N 
ATOM     21  CZ  ARG G   2      21.918  37.126  38.865  1.00 82.01 LIG 0.67  C 
ATOM     22  NH1 ARG G   2      21.517  35.870  39.073  1.00 81.47 LIG-0.23  N 
ATOM     23  NH2 ARG G   2      22.910  37.354  38.007  1.00 84.93 LIG-0.23  N 
ATOM     24 1HH1 ARG G   2      20.880  35.709  39.628  1.00 81.47 LIG 0.17  HD
ATOM     25 2HH1 ARG G   2      21.896  35.222  38.652  1.00 81.47 LIG 0.17  HD
ATOM     26 2HH2 ARG G   2      23.280  36.697  37.593  1.00 84.93 LIG 0.17  HD
ATOM     27 1HH2 ARG G   2      23.181  38.158  37.866  1.00 84.93 LIG 0.17  HD
ATOM     28 HE   ARG G   2      21.657  38.943  39.324  1.00 80.25 LIG 0.18  HD
ENDBRANCH 19 20
ENDBRANCH 18 19
ENDBRANCH 17 18
ENDBRANCH 6 17
ENDBRANCH 3 6
ENDBRANCH 1 2
BRANCH 1 29
ATOM     29  CB  THR G   3      13.641  36.213  42.336  1.00 68.23 LIG 0.15  C 
ATOM     30  CG2 THR G   3      14.667  35.434  43.139  1.00 68.63 LIG 0.04  C 
BRANCH 29 31
ATOM     31 OG1  THR G   3      12.399  36.243  43.050  1.00 67.51 LIG-0.39  OA
ATOM     32 HG1  THR G   3      12.079  37.019  43.022  1.00 67.51 LIG 0.21  HD
ENDBRANCH 29 31
ENDBRANCH 1 29
BRANCH 1 33
ATOM     33  C   THR G   3      13.876  38.515  43.295  1.00 68.02 LIG 0.24  C 
ATOM     34  N   ALA G   4      14.953  39.059  43.859  1.00 68.86 LIG-0.35  N 
ATOM     35 H    ALA G   4      15.756  38.906  43.591  1.00 68.86 LIG 0.16  HD
ATOM     36 O    THR G   3      12.731  38.677  43.723  1.00 67.54 LIG-0.27  OA
BRANCH 34 37
ATOM     37  CA  ALA G   4      14.872  39.977  44.998  1.00 69.75 LIG 0.17  C 
ATOM     38  CB  ALA G   4      13.847  41.064  44.720  1.00 70.86 LIG 0.04  C 
BRANCH 37 39
ATOM     39  C   ALA G   4      14.545  39.262  46.316  1.00 71.43 LIG 0.24  C 
ATOM     40  N   ALA G   5      13.461  38.483  46.323  1.00 71.85 LIG-0.35  N 
ATOM     41 H    ALA G   5      12.921  38.414  45.657  1.00 71.85 LIG 0.16  HD
ATOM     42 O    ALA G   4      15.271  39.418  47.302  1.00 72.80 LIG-0.27  OA
BRANCH 40 43
ATOM     43  CA  ALA G   5      13.087  37.663  47.481  1.00 72.89 LIG 0.17  C 
ATOM     44  CB  ALA G   5      11.952  36.715  47.119  1.00 72.65 LIG 0.04  C 
BRANCH 43 45
ATOM     45  C   ALA G   5      14.279  36.877  48.039  1.00 72.87 LIG 0.24  C 
ATOM     46  N   THR G   6      14.110  36.288  49.226  1.00 71.86 LIG-0.34  N 
ATOM     47 H    THR G   6      13.385  36.342  49.686  1.00 71.86 LIG 0.16  HD
ATOM     48 O    ALA G   5      15.329  36.810  47.398  1.00 74.40 LIG-0.27  OA
BRANCH 46 49
ATOM     49  CA  THR G   6      15.167  35.483  49.861  1.00 72.17 LIG 0.20  C 
BRANCH 49 50
ATOM     50  CB  THR G   6      16.437  36.312  50.166  1.00 71.29 LIG 0.15  C 
ATOM     51  CG2 THR G   6      17.591  35.892  49.260  1.00 70.64 LIG 0.04  C 
BRANCH 50 52
ATOM     52 OG1  THR G   6      16.166  37.707  49.982  1.00 70.47 LIG-0.39  OA
ATOM     53 HG1  THR G   6      16.135  37.881  49.161  1.00 70.47 LIG 0.21  HD
ENDBRANCH 50 52
ENDBRANCH 49 50
BRANCH 49 54
ATOM     54  C   THR G   6      14.693  34.801  51.153  1.00 73.53 LIG 0.24  C 
ATOM     55  N   ALA G   7      13.437  34.344  51.168  1.00 73.25 LIG-0.35  N 
ATOM     56 H    ALA G   7      12.874  34.488  50.533  1.00 73.25 LIG 0.16  HD
ATOM     57 O    THR G   6      15.457  34.711  52.116  1.00 75.15 LIG-0.27  OA
BRANCH 55 58
ATOM     58  CA  ALA G   7      12.888  33.546  52.274  1.00 74.45 LIG 0.16  C 
ATOM     59  CB  ALA G   7      11.548  34.111  52.724  1.00 73.04 LIG 0.04  C 
BRANCH 58 60
ATOM     60  C   ALA G   7      12.730  32.083  51.858  1.00 76.13 LIG 0.22  C 
ATOM     61 O    ALA G   7      12.962  31.723  50.703  1.00 77.97 LIG-0.29  OA
ENDBRANCH 58 60
ENDBRANCH 55 58
ENDBRANCH 49 54
ENDBRANCH 46 49
ENDBRANCH 43 45
ENDBRANCH 40 43
ENDBRANCH 37 39
ENDBRANCH 34 37
ENDBRANCH 1 33
TORSDOF 22
ENDMDL
MODEL 67
USER: ADFR SOLUTION from run 55
USER: SCORE 14.691775 LL:  -3.602 LR: -14.484 RR:   0.000 FEB:  -7.922
USER: RMSD 3.037471
USER: SEED 54
USER: STATUS searching
USER: GENES 24
USER: genes 0 Translation |==|  0.32150 0.48772 0.45087
USER: genes 1 Rotation |==|  0.53612 0.52478 0.56233 0.99416
USER: genes 2 Torsion [CB]-CA--N-[C] |==|  0.24430
USER: genes 3 Torsion [N]-C--CA-[N] |==|  0.50552
USER: genes 4 Torsion [C]-CA--N-[C] |==|  0.78063
USER: genes 5 Torsion [N]-C--CA-[N] |==|  0.23160
USER: genes 6 Torsion [C]-CA--N-[H1] |==|  0.51257
USER: genes 7 Torsion [C]-CA--CB-[CG] |==|  0.54396
USER: genes 8 Torsion [CA]-CB--CG-[CD] |==|  0.31764
USER: genes 9 Torsion [CB]-CG--CD-[NE] |==|  0.52845
USER: genes 10 Torsion [CG]-CD--NE-[CZ] |==|  0.57145
USER: genes 11 Torsion [N]-CA--CB-[OG1] |==|  0.35532
USER: genes 12 Torsion [CA]-CB--OG1-[HG1] |==|  0.25310
USER: genes 13 Torsion [N]-CA--C-[N] |==|  0.36844
USER: genes 14 Torsion [C]-N--CA-[CB] |==|  0.58947
USER: genes 15 Torsion [N]-CA--C-[N] |==|  0.83667
USER: genes 16 Torsion [C]-N--CA-[CB] |==|  0.55560
USER: genes 17 Torsion [N]-CA--C-[N] |==|  0.83430
USER: genes 18 Torsion [C]-N--CA-[CB] |==|  0.85097
USER: genes 19 Torsion [N]-CA--CB-[CG2] |==|  0.54445
USER: genes 20 Torsion [CA]-CB--OG1-[HG1] |==|  0.04789
USER: genes 21 Torsion [N]-CA--C-[N] |==|  0.37722
USER: genes 22 Torsion [C]-N--CA-[C] |==|  0.78175
USER: genes 23 Torsion [N]-CA--C-[O] |==|  0.94516
ROOT
ATOM      1  CA  THR G   3      14.122  37.933  42.168  1.00 68.23 LIG 0.20  C 
ENDROOT
BRANCH 1 2
ATOM      2  N   THR G   3      15.559  37.971  41.916  1.00 68.42 LIG-0.34  N 
ATOM      3  C   ARG G   2      16.094  37.757  40.716  1.00 70.38 LIG 0.24  C 
ATOM      4 O    ARG G   2      15.442  37.401  39.728  1.00 69.46 LIG-0.27  OA
ATOM      5 H    THR G   3      16.027  38.143  42.615  1.00 68.42 LIG 0.16  HD
BRANCH 3 6
ATOM      6  CA  ARG G   2      17.604  37.951  40.624  1.00 72.62 LIG 0.18  C 
BRANCH 6 7
ATOM      7  N   ARG G   2      18.032  37.729  39.246  1.00 74.86 LIG-0.35  N 
ATOM      8  C   ALA G   1      18.187  36.507  38.740  1.00 76.29 LIG 0.25  C 
ATOM      9 O    ALA G   1      18.157  35.478  39.421  1.00 75.70 LIG-0.27  OA
ATOM     10 H    ARG G   2      18.172  38.451  38.800  1.00 74.86 LIG 0.16  HD
BRANCH 8 11
ATOM     11  CA  ALA G   1      18.420  36.433  37.239  1.00 78.97 LIG 0.27  C 
ATOM     12  CB  ALA G   1      17.952  35.082  36.710  1.00 79.33 LIG 0.05  C 
BRANCH 11 13
ATOM     13  N   ALA G   1      19.858  36.654  36.921  1.00 81.42 LIG-0.07  N 
ATOM     14 H3   ALA G   1      20.344  35.993  37.266  1.00 81.42 LIG 0.28  HD
ATOM     15 H2   ALA G   1      20.122  37.429  37.269  1.00 81.42 LIG 0.28  HD
ATOM     16 H1   ALA G   1      19.967  36.673  36.038  1.00 81.42 LIG 0.28  HD
ENDBRANCH 11 13
ENDBRANCH 8 11
ENDBRANCH 6 7
BRANCH 6 17
ATOM     17  CB  ARG G   2      18.005  39.350  41.103  1.00 73.45 LIG 0.04  C 
BRANCH 17 18
ATOM     18  CG  ARG G   2      19.412  39.743  40.688  1.00 75.79 LIG 0.02  C 
BRANCH 18 19
ATOM     19  CD  ARG G   2      19.424  40.907  39.710  1.00 77.52 LIG 0.14  C 
BRANCH 19 20
ATOM     20  NE  ARG G   2      20.758  41.112  39.140  1.00 80.25 LIG-0.23  N 
ATOM     21  CZ  ARG G   2      21.232  42.267  38.663  1.00 82.01 LIG 0.67  C 
ATOM     22  NH1 ARG G   2      20.494  43.380  38.664  1.00 81.47 LIG-0.23  N 
ATOM     23  NH2 ARG G   2      22.467  42.311  38.169  1.00 84.93 LIG-0.23  N 
ATOM     24 1HH1 ARG G   2      19.693  43.364  38.976  1.00 81.47 LIG 0.17  HD
ATOM     25 2HH1 ARG G   2      20.821  44.112  38.352  1.00 81.47 LIG 0.17  HD
ATOM     26 2HH2 ARG G   2      22.780  43.050  37.860  1.00 84.93 LIG 0.17  HD
ATOM     27 1HH2 ARG G   2      22.952  41.601  38.159  1.00 84.93 LIG 0.17  HD
ATOM     28 HE   ARG G   2      21.282  40.430  39.111  1.00 80.25 LIG 0.18  HD
ENDBRANCH 19 20
ENDBRANCH 18 19
ENDBRANCH 17 18
ENDBRANCH 6 17
ENDBRANCH 3 6
ENDBRANCH 1 2
BRANCH 1 29
ATOM     29  CB  THR G   3      13.632  36.505  42.507  1.00 68.23 LIG 0.15  C 
ATOM     30  CG2 THR G   3      14.805  35.552  42.645  1.00 68.63 LIG 0.04  C 
BRANCH 29 31
ATOM     31 OG1  THR G   3      12.880  36.517  43.727  1.00 67.51 LIG-0.39  OA
ATOM     32 HG1  THR G   3      12.067  36.635  43.553  1.00 67.51 LIG 0.21  HD
ENDBRANCH 29 31
ENDBRANCH 1 29
BRANCH 1 33
ATOM     33  C   THR G   3      13.761  38.873  43.313  1.00 68.02 LIG 0.24  C 
ATOM     34  N   ALA G   4      12.724  39.679  43.096  1.00 68.86 LIG-0.35  N 
ATOM     35 H    ALA G   4      12.303  39.718  42.346  1.00 68.86 LIG 0.16  HD
ATOM     36 O    THR G   3      14.408  38.868  44.362  1.00 67.54 LIG-0.27  OA
BRANCH 34 37
ATOM     37  CA  ALA G   4      12.196  40.585  44.120  1.00 69.75 LIG 0.17  C 
ATOM     38  CB  ALA G   4      10.696  40.752  43.946  1.00 70.86 LIG 0.04  C 
BRANCH 37 39
ATOM     39  C   ALA G   4      12.519  40.121  45.546  1.00 71.43 LIG 0.24  C 
ATOM     40  N   ALA G   5      12.071  38.915  45.901  1.00 71.85 LIG-0.35  N 
ATOM     41 H    ALA G   5      11.573  38.427  45.398  1.00 71.85 LIG 0.16  HD
ATOM     42 O    ALA G   4      13.164  40.851  46.304  1.00 72.80 LIG-0.27  OA
BRANCH 40 43
ATOM     43  CA  ALA G   5      12.391  38.305  47.197  1.00 72.89 LIG 0.17  C 
ATOM     44  CB  ALA G   5      12.186  36.797  47.140  1.00 72.65 LIG 0.04  C 
BRANCH 43 45
ATOM     45  C   ALA G   5      13.817  38.631  47.651  1.00 72.87 LIG 0.24  C 
ATOM     46  N   THR G   6      14.810  38.242  46.847  1.00 71.86 LIG-0.34  N 
ATOM     47 H    THR G   6      14.688  37.814  46.111  1.00 71.86 LIG 0.16  HD
ATOM     48 O    ALA G   5      14.007  39.228  48.713  1.00 74.40 LIG-0.27  OA
BRANCH 46 49
ATOM     49  CA  THR G   6      16.225  38.516  47.155  1.00 72.17 LIG 0.20  C 
BRANCH 49 50
ATOM     50  CB  THR G   6      16.488  40.017  47.423  1.00 71.29 LIG 0.15  C 
ATOM     51  CG2 THR G   6      17.981  40.329  47.347  1.00 70.64 LIG 0.04  C 
BRANCH 50 52
ATOM     52 OG1  THR G   6      15.782  40.816  46.467  1.00 70.47 LIG-0.39  OA
ATOM     53 HG1  THR G   6      15.185  40.353  46.100  1.00 70.47 LIG 0.21  HD
ENDBRANCH 50 52
ENDBRANCH 49 50
BRANCH 49 54
ATOM     54  C   THR G   6      16.736  37.697  48.349  1.00 73.53 LIG 0.24  C 
ATOM     55  N   ALA G   7      17.939  37.128  48.220  1.00 73.25 LIG-0.35  N 
ATOM     56 H    ALA G   7      18.386  37.131  47.485  1.00 73.25 LIG 0.16  HD
ATOM     57 O    THR G   6      16.037  37.580  49.358  1.00 75.15 LIG-0.27  OA
BRANCH 55 58
ATOM     58  CA  ALA G   7      18.621  36.437  49.324  1.00 74.45 LIG 0.16  C 
ATOM     59  CB  ALA G   7      19.674  35.481  48.783  1.00 73.04 LIG 0.04  C 
BRANCH 58 60
ATOM     60  C   ALA G   7      19.264  37.444  50.276  1.00 76.13 LIG 0.22  C 
ATOM     61 O    ALA G   7      19.496  38.600  49.917  1.00 77.97 LIG-0.29  OA
ENDBRANCH 58 60
ENDBRANCH 55 58
ENDBRANCH 49 54
ENDBRANCH 46 49
ENDBRANCH 43 45
ENDBRANCH 40 43
ENDBRANCH 37 39
ENDBRANCH 34 37
ENDBRANCH 1 33
TORSDOF 22
ENDMDL
MODEL 68
USER: ADFR SOLUTION from run 122
USER: SCORE 16.640278 LL:  -3.830 LR: -14.478 RR:   0.000 FEB:  -7.915
USER: RMSD 2.532789
USER: SEED 121
USER: STATUS no improvement in best in 7 clusters for 5 generations
USER: GENES 24
USER: genes 0 Translation |==|  0.32954 0.48665 0.45073
USER: genes 1 Rotation |==|  0.48920 0.55487 0.56644 0.99240
USER: genes 2 Torsion [CB]-CA--N-[C] |==|  0.25537
USER: genes 3 Torsion [N]-C--CA-[N] |==|  0.52206
USER: genes 4 Torsion [C]-CA--N-[C] |==|  0.75401
USER: genes 5 Torsion [N]-C--CA-[N] |==|  0.27125
USER: genes 6 Torsion [C]-CA--N-[H1] |==|  0.38033
USER: genes 7 Torsion [C]-CA--CB-[CG] |==|  0.49773
USER: genes 8 Torsion [CA]-CB--CG-[CD] |==|  0.93401
USER: genes 9 Torsion [CB]-CG--CD-[NE] |==|  0.39602
USER: genes 10 Torsion [CG]-CD--NE-[CZ] |==|  0.57796
USER: genes 11 Torsion [N]-CA--CB-[OG1] |==|  0.56409
USER: genes 12 Torsion [CA]-CB--OG1-[HG1] |==|  0.77149
USER: genes 13 Torsion [N]-CA--C-[N] |==|  0.41778
USER: genes 14 Torsion [C]-N--CA-[CB] |==|  0.52819
USER: genes 15 Torsion [N]-CA--C-[N] |==|  0.41115
USER: genes 16 Torsion [C]-N--CA-[CB] |==|  0.84315
USER: genes 17 Torsion [N]-CA--C-[N] |==|  0.37222
USER: genes 18 Torsion [C]-N--CA-[CB] |==|  0.85270
USER: genes 19 Torsion [N]-CA--CB-[CG2] |==|  0.56759
USER: genes 20 Torsion [CA]-CB--OG1-[HG1] |==|  0.41183
USER: genes 21 Torsion [N]-CA--C-[N] |==|  0.88349
USER: genes 22 Torsion [C]-N--CA-[C] |==|  0.64309
USER: genes 23 Torsion [N]-CA--C-[O] |==|  0.00648
ROOT
ATOM      1  CA  THR G   3      14.303  37.914  42.165  1.00 68.23 LIG 0.20  C 
ENDROOT
BRANCH 1 2
ATOM      2  N   THR G   3      15.708  37.937  41.771  1.00 68.42 LIG-0.34  N 
ATOM      3  C   ARG G   2      16.132  37.574  40.563  1.00 70.38 LIG 0.24  C 
ATOM      4 O    ARG G   2      15.399  37.082  39.698  1.00 69.46 LIG-0.27  OA
ATOM      5 H    THR G   3      16.236  38.206  42.394  1.00 68.42 LIG 0.16  HD
BRANCH 3 6
ATOM      6  CA  ARG G   2      17.621  37.774  40.300  1.00 72.62 LIG 0.18  C 
BRANCH 6 7
ATOM      7  N   ARG G   2      17.897  37.513  38.890  1.00 74.86 LIG-0.35  N 
ATOM      8  C   ALA G   1      18.191  36.296  38.439  1.00 76.29 LIG 0.25  C 
ATOM      9 O    ALA G   1      18.428  35.333  39.175  1.00 75.70 LIG-0.27  OA
ATOM     10 H    ARG G   2      17.852  38.210  38.388  1.00 74.86 LIG 0.16  HD
BRANCH 8 11
ATOM     11  CA  ALA G   1      18.236  36.139  36.927  1.00 78.97 LIG 0.27  C 
ATOM     12  CB  ALA G   1      17.606  34.810  36.526  1.00 79.33 LIG 0.05  C 
BRANCH 11 13
ATOM     13  N   ALA G   1      19.638  36.228  36.433  1.00 81.42 LIG-0.07  N 
ATOM     14 H3   ALA G   1      20.201  36.111  37.113  1.00 81.42 LIG 0.28  HD
ATOM     15 H2   ALA G   1      19.774  37.029  36.070  1.00 81.42 LIG 0.28  HD
ATOM     16 H1   ALA G   1      19.778  35.597  35.820  1.00 81.42 LIG 0.28  HD
ENDBRANCH 11 13
ENDBRANCH 8 11
ENDBRANCH 6 7
BRANCH 6 17
ATOM     17  CB  ARG G   2      18.059  39.188  40.691  1.00 73.45 LIG 0.04  C 
BRANCH 17 18
ATOM     18  CG  ARG G   2      19.541  39.438  40.469  1.00 75.79 LIG 0.02  C 
BRANCH 18 19
ATOM     19  CD  ARG G   2      20.352  38.152  40.472  1.00 77.52 LIG 0.14  C 
BRANCH 19 20
ATOM     20  NE  ARG G   2      21.430  38.199  39.482  1.00 80.25 LIG-0.23  N 
ATOM     21  CZ  ARG G   2      21.963  37.142  38.860  1.00 82.01 LIG 0.67  C 
ATOM     22  NH1 ARG G   2      21.538  35.900  39.103  1.00 81.47 LIG-0.23  N 
ATOM     23  NH2 ARG G   2      22.945  37.328  37.982  1.00 84.93 LIG-0.23  N 
ATOM     24 1HH1 ARG G   2      20.907  35.765  39.671  1.00 81.47 LIG 0.17  HD
ATOM     25 2HH1 ARG G   2      21.895  35.235  38.690  1.00 81.47 LIG 0.17  HD
ATOM     26 2HH2 ARG G   2      23.294  36.655  37.577  1.00 84.93 LIG 0.17  HD
ATOM     27 1HH2 ARG G   2      23.231  38.123  37.819  1.00 84.93 LIG 0.17  HD
ATOM     28 HE   ARG G   2      21.748  38.973  39.283  1.00 80.25 LIG 0.18  HD
ENDBRANCH 19 20
ENDBRANCH 18 19
ENDBRANCH 17 18
ENDBRANCH 6 17
ENDBRANCH 3 6
ENDBRANCH 1 2
BRANCH 1 29
ATOM     29  CB  THR G   3      13.910  36.570  42.824  1.00 68.23 LIG 0.15  C 
ATOM     30  CG2 THR G   3      14.307  36.551  44.288  1.00 68.63 LIG 0.04  C 
BRANCH 29 31
ATOM     31 OG1  THR G   3      12.497  36.359  42.709  1.00 67.51 LIG-0.39  OA
ATOM     32 HG1  THR G   3      12.101  36.778  43.320  1.00 67.51 LIG 0.21  HD
ENDBRANCH 29 31
ENDBRANCH 1 29
BRANCH 1 33
ATOM     33  C   THR G   3      14.006  39.054  43.133  1.00 68.02 LIG 0.24  C 
ATOM     34  N   ALA G   4      12.764  39.534  43.100  1.00 68.86 LIG-0.35  N 
ATOM     35 H    ALA G   4      12.168  39.266  42.541  1.00 68.86 LIG 0.16  HD
ATOM     36 O    THR G   3      14.880  39.487  43.886  1.00 67.54 LIG-0.27  OA
BRANCH 34 37
ATOM     37  CA  ALA G   4      12.292  40.573  44.019  1.00 69.75 LIG 0.17  C 
ATOM     38  CB  ALA G   4      10.784  40.727  43.901  1.00 70.86 LIG 0.04  C 
BRANCH 37 39
ATOM     39  C   ALA G   4      12.686  40.302  45.476  1.00 71.43 LIG 0.24  C 
ATOM     40  N   ALA G   5      12.915  41.369  46.245  1.00 71.85 LIG-0.35  N 
ATOM     41 H    ALA G   5      12.909  42.176  45.949  1.00 71.85 LIG 0.16  HD
ATOM     42 O    ALA G   4      12.777  39.141  45.888  1.00 72.80 LIG-0.27  OA
BRANCH 40 43
ATOM     43  CA  ALA G   5      13.202  41.260  47.679  1.00 72.89 LIG 0.17  C 
ATOM     44  CB  ALA G   5      12.082  40.514  48.392  1.00 72.65 LIG 0.04  C 
BRANCH 43 45
ATOM     45  C   ALA G   5      14.549  40.580  47.947  1.00 72.87 LIG 0.24  C 
ATOM     46  N   THR G   6      15.349  41.159  48.847  1.00 71.86 LIG-0.34  N 
ATOM     47 H    THR G   6      15.152  41.886  49.262  1.00 71.86 LIG 0.16  HD
ATOM     48 O    ALA G   5      14.851  39.548  47.345  1.00 74.40 LIG-0.27  OA
BRANCH 46 49
ATOM     49  CA  THR G   6      16.658  40.593  49.215  1.00 72.17 LIG 0.20  C 
BRANCH 49 50
ATOM     50  CB  THR G   6      16.559  39.110  49.642  1.00 71.29 LIG 0.15  C 
ATOM     51  CG2 THR G   6      17.724  38.727  50.552  1.00 70.64 LIG 0.04  C 
BRANCH 50 52
ATOM     52 OG1  THR G   6      15.321  38.878  50.325  1.00 70.47 LIG-0.39  OA
ATOM     53 HG1  THR G   6      15.062  38.093  50.177  1.00 70.47 LIG 0.21  HD
ENDBRANCH 50 52
ENDBRANCH 49 50
BRANCH 49 54
ATOM     54  C   THR G   6      17.691  40.720  48.086  1.00 73.53 LIG 0.24  C 
ATOM     55  N   ALA G   7      17.267  40.462  46.845  1.00 73.25 LIG-0.35  N 
ATOM     56 H    ALA G   7      16.483  40.154  46.670  1.00 73.25 LIG 0.16  HD
ATOM     57 O    THR G   6      18.854  41.035  48.351  1.00 75.15 LIG-0.27  OA
BRANCH 55 58
ATOM     58  CA  ALA G   7      18.097  40.680  45.652  1.00 74.45 LIG 0.16  C 
ATOM     59  CB  ALA G   7      18.519  39.348  45.047  1.00 73.04 LIG 0.04  C 
BRANCH 58 60
ATOM     60  C   ALA G   7      17.344  41.513  44.615  1.00 76.13 LIG 0.22  C 
ATOM     61 O    ALA G   7      16.214  41.946  44.847  1.00 77.97 LIG-0.29  OA
ENDBRANCH 58 60
ENDBRANCH 55 58
ENDBRANCH 49 54
ENDBRANCH 46 49
ENDBRANCH 43 45
ENDBRANCH 40 43
ENDBRANCH 37 39
ENDBRANCH 34 37
ENDBRANCH 1 33
TORSDOF 22
ENDMDL
MODEL 69
USER: ADFR SOLUTION from run 41
USER: SCORE 15.036414 LL:  -4.164 LR: -14.473 RR:   0.000 FEB:  -7.910
USER: RMSD 3.568945
USER: SEED 40
USER: STATUS no improvement in best in 17 clusters for 5 generations
USER: GENES 24
USER: genes 0 Translation |==|  0.40192 0.51209 0.39122
USER: genes 1 Rotation |==|  0.58738 0.50878 0.62155 0.97698
USER: genes 2 Torsion [CB]-CA--N-[C] |==|  0.17072
USER: genes 3 Torsion [N]-C--CA-[N] |==|  0.41930
USER: genes 4 Torsion [C]-CA--N-[C] |==|  0.63134
USER: genes 5 Torsion [N]-C--CA-[N] |==|  0.23457
USER: genes 6 Torsion [C]-CA--N-[H1] |==|  0.36191
USER: genes 7 Torsion [C]-CA--CB-[CG] |==|  0.30765
USER: genes 8 Torsion [CA]-CB--CG-[CD] |==|  0.21274
USER: genes 9 Torsion [CB]-CG--CD-[NE] |==|  0.09589
USER: genes 10 Torsion [CG]-CD--NE-[CZ] |==|  0.24947
USER: genes 11 Torsion [N]-CA--CB-[OG1] |==|  0.58409
USER: genes 12 Torsion [CA]-CB--OG1-[HG1] |==|  0.75930
USER: genes 13 Torsion [N]-CA--C-[N] |==|  0.40673
USER: genes 14 Torsion [C]-N--CA-[CB] |==|  0.45179
USER: genes 15 Torsion [N]-CA--C-[N] |==|  0.95233
USER: genes 16 Torsion [C]-N--CA-[CB] |==|  0.53210
USER: genes 17 Torsion [N]-CA--C-[N] |==|  0.33040
USER: genes 18 Torsion [C]-N--CA-[CB] |==|  0.86503
USER: genes 19 Torsion [N]-CA--CB-[CG2] |==|  0.55581
USER: genes 20 Torsion [CA]-CB--OG1-[HG1] |==|  0.92628
USER: genes 21 Torsion [N]-CA--C-[N] |==|  0.89318
USER: genes 22 Torsion [C]-N--CA-[C] |==|  0.74466
USER: genes 23 Torsion [N]-CA--C-[O] |==|  0.66319
ROOT
ATOM      1  CA  THR G   3      15.931  38.372  40.960  1.00 68.23 LIG 0.20  C 
ENDROOT
BRANCH 1 2
ATOM      2  N   THR G   3      17.327  38.780  40.833  1.00 68.42 LIG-0.34  N 
ATOM      3  C   ARG G   2      18.075  38.496  39.770  1.00 70.38 LIG 0.24  C 
ATOM      4 O    ARG G   2      17.701  37.770  38.841  1.00 69.46 LIG-0.27  OA
ATOM      5 H    THR G   3      17.620  39.222  41.510  1.00 68.42 LIG 0.16  HD
BRANCH 3 6
ATOM      6  CA  ARG G   2      19.474  39.104  39.767  1.00 72.62 LIG 0.18  C 
BRANCH 6 7
ATOM      7  N   ARG G   2      20.372  38.235  39.012  1.00 74.86 LIG-0.35  N 
ATOM      8  C   ALA G   1      21.568  37.879  39.474  1.00 76.29 LIG 0.25  C 
ATOM      9 O    ALA G   1      22.090  38.380  40.475  1.00 75.70 LIG-0.27  OA
ATOM     10 H    ARG G   2      20.059  37.980  38.252  1.00 74.86 LIG 0.16  HD
BRANCH 8 11
ATOM     11  CA  ALA G   1      22.294  36.802  38.683  1.00 78.97 LIG 0.27  C 
ATOM     12  CB  ALA G   1      23.244  36.039  39.600  1.00 79.33 LIG 0.05  C 
BRANCH 11 13
ATOM     13  N   ALA G   1      23.034  37.401  37.539  1.00 81.42 LIG-0.07  N 
ATOM     14 H3   ALA G   1      23.036  38.288  37.617  1.00 81.42 LIG 0.28  HD
ATOM     15 H2   ALA G   1      22.638  37.172  36.776  1.00 81.42 LIG 0.28  HD
ATOM     16 H1   ALA G   1      23.873  37.102  37.538  1.00 81.42 LIG 0.28  HD
ENDBRANCH 11 13
ENDBRANCH 8 11
ENDBRANCH 6 7
BRANCH 6 17
ATOM     17  CB  ARG G   2      19.453  40.517  39.176  1.00 73.45 LIG 0.04  C 
BRANCH 17 18
ATOM     18  CG  ARG G   2      19.720  41.600  40.206  1.00 75.79 LIG 0.02  C 
BRANCH 18 19
ATOM     19  CD  ARG G   2      21.192  41.698  40.576  1.00 77.52 LIG 0.14  C 
BRANCH 19 20
ATOM     20  NE  ARG G   2      22.051  41.408  39.425  1.00 80.25 LIG-0.23  N 
ATOM     21  CZ  ARG G   2      22.502  42.307  38.544  1.00 82.01 LIG 0.67  C 
ATOM     22  NH1 ARG G   2      22.190  43.602  38.643  1.00 81.47 LIG-0.23  N 
ATOM     23  NH2 ARG G   2      23.275  41.905  37.538  1.00 84.93 LIG-0.23  N 
ATOM     24 1HH1 ARG G   2      21.688  43.875  39.286  1.00 81.47 LIG 0.17  HD
ATOM     25 2HH1 ARG G   2      22.492  44.162  38.065  1.00 81.47 LIG 0.17  HD
ATOM     26 2HH2 ARG G   2      23.570  42.476  36.967  1.00 84.93 LIG 0.17  HD
ATOM     27 1HH2 ARG G   2      23.480  41.073  37.460  1.00 84.93 LIG 0.17  HD
ATOM     28 HE   ARG G   2      22.286  40.589  39.306  1.00 80.25 LIG 0.18  HD
ENDBRANCH 19 20
ENDBRANCH 18 19
ENDBRANCH 17 18
ENDBRANCH 6 17
ENDBRANCH 3 6
ENDBRANCH 1 2
BRANCH 1 29
ATOM     29  CB  THR G   3      15.776  36.833  40.940  1.00 68.23 LIG 0.15  C 
ATOM     30  CG2 THR G   3      15.885  36.262  42.342  1.00 68.63 LIG 0.04  C 
BRANCH 29 31
ATOM     31 OG1  THR G   3      14.510  36.471  40.374  1.00 67.51 LIG-0.39  OA
ATOM     32 HG1  THR G   3      13.924  36.469  40.977  1.00 67.51 LIG 0.21  HD
ENDBRANCH 29 31
ENDBRANCH 1 29
BRANCH 1 33
ATOM     33  C   THR G   3      15.335  38.920  42.252  1.00 68.02 LIG 0.24  C 
ATOM     34  N   ALA G   4      14.045  39.246  42.202  1.00 68.86 LIG-0.35  N 
ATOM     35 H    ALA G   4      13.573  39.205  41.483  1.00 68.86 LIG 0.16  HD
ATOM     36 O    THR G   3      16.028  39.048  43.264  1.00 67.54 LIG-0.27  OA
BRANCH 34 37
ATOM     37  CA  ALA G   4      13.299  39.711  43.375  1.00 69.75 LIG 0.17  C 
ATOM     38  CB  ALA G   4      12.016  40.397  42.939  1.00 70.86 LIG 0.04  C 
BRANCH 37 39
ATOM     39  C   ALA G   4      12.989  38.583  44.367  1.00 71.43 LIG 0.24  C 
ATOM     40  N   ALA G   5      13.097  37.334  43.909  1.00 71.85 LIG-0.35  N 
ATOM     41 H    ALA G   5      13.269  37.142  43.089  1.00 71.85 LIG 0.16  HD
ATOM     42 O    ALA G   4      12.661  38.851  45.527  1.00 72.80 LIG-0.27  OA
BRANCH 40 43
ATOM     43  CA  ALA G   5      12.928  36.160  44.773  1.00 72.89 LIG 0.17  C 
ATOM     44  CB  ALA G   5      13.382  34.898  44.052  1.00 72.65 LIG 0.04  C 
BRANCH 43 45
ATOM     45  C   ALA G   5      13.674  36.311  46.103  1.00 72.87 LIG 0.24  C 
ATOM     46  N   THR G   6      12.935  36.285  47.215  1.00 71.86 LIG-0.34  N 
ATOM     47 H    THR G   6      12.079  36.203  47.218  1.00 71.86 LIG 0.16  HD
ATOM     48 O    ALA G   5      14.899  36.448  46.112  1.00 74.40 LIG-0.27  OA
BRANCH 46 49
ATOM     49  CA  THR G   6      13.533  36.394  48.558  1.00 72.17 LIG 0.20  C 
BRANCH 49 50
ATOM     50  CB  THR G   6      14.733  35.437  48.748  1.00 71.29 LIG 0.15  C 
ATOM     51  CG2 THR G   6      15.011  35.202  50.230  1.00 70.64 LIG 0.04  C 
BRANCH 50 52
ATOM     52 OG1  THR G   6      14.468  34.185  48.104  1.00 70.47 LIG-0.39  OA
ATOM     53 HG1  THR G   6      13.638  34.058  48.068  1.00 70.47 LIG 0.21  HD
ENDBRANCH 50 52
ENDBRANCH 49 50
BRANCH 49 54
ATOM     54  C   THR G   6      13.977  37.826  48.889  1.00 73.53 LIG 0.24  C 
ATOM     55  N   ALA G   7      14.523  38.535  47.895  1.00 73.25 LIG-0.35  N 
ATOM     56 H    ALA G   7      14.708  38.201  47.124  1.00 73.25 LIG 0.16  HD
ATOM     57 O    THR G   6      13.835  38.265  50.033  1.00 75.15 LIG-0.27  OA
BRANCH 55 58
ATOM     58  CA  ALA G   7      14.864  39.959  48.020  1.00 74.45 LIG 0.16  C 
ATOM     59  CB  ALA G   7      16.116  40.279  47.215  1.00 73.04 LIG 0.04  C 
BRANCH 58 60
ATOM     60  C   ALA G   7      13.701  40.835  47.554  1.00 76.13 LIG 0.22  C 
ATOM     61 O    ALA G   7      13.842  41.642  46.634  1.00 77.97 LIG-0.29  OA
ENDBRANCH 58 60
ENDBRANCH 55 58
ENDBRANCH 49 54
ENDBRANCH 46 49
ENDBRANCH 43 45
ENDBRANCH 40 43
ENDBRANCH 37 39
ENDBRANCH 34 37
ENDBRANCH 1 33
TORSDOF 22
ENDMDL
MODEL 70
USER: ADFR SOLUTION from run 79
USER: SCORE 16.562116 LL:  -4.103 LR: -14.474 RR:   0.000 FEB:  -7.912
USER: RMSD 3.170581
USER: SEED 78
USER: STATUS searching
USER: GENES 24
USER: genes 0 Translation |==|  0.32598 0.46961 0.45434
USER: genes 1 Rotation |==|  0.60421 0.54085 0.54510 0.98522
USER: genes 2 Torsion [CB]-CA--N-[C] |==|  0.20613
USER: genes 3 Torsion [N]-C--CA-[N] |==|  0.50510
USER: genes 4 Torsion [C]-CA--N-[C] |==|  0.73725
USER: genes 5 Torsion [N]-C--CA-[N] |==|  0.28224
USER: genes 6 Torsion [C]-CA--N-[H1] |==|  0.36753
USER: genes 7 Torsion [C]-CA--CB-[CG] |==|  0.51699
USER: genes 8 Torsion [CA]-CB--CG-[CD] |==|  0.91995
USER: genes 9 Torsion [CB]-CG--CD-[NE] |==|  0.41342
USER: genes 10 Torsion [CG]-CD--NE-[CZ] |==|  0.56314
USER: genes 11 Torsion [N]-CA--CB-[OG1] |==|  0.52684
USER: genes 12 Torsion [CA]-CB--OG1-[HG1] |==|  0.82475
USER: genes 13 Torsion [N]-CA--C-[N] |==|  0.48283
USER: genes 14 Torsion [C]-N--CA-[CB] |==|  0.79393
USER: genes 15 Torsion [N]-CA--C-[N] |==|  0.13395
USER: genes 16 Torsion [C]-N--CA-[CB] |==|  0.87159
USER: genes 17 Torsion [N]-CA--C-[N] |==|  0.89259
USER: genes 18 Torsion [C]-N--CA-[CB] |==|  0.76997
USER: genes 19 Torsion [N]-CA--CB-[CG2] |==|  0.65977
USER: genes 20 Torsion [CA]-CB--OG1-[HG1] |==|  0.87583
USER: genes 21 Torsion [N]-CA--C-[N] |==|  0.19445
USER: genes 22 Torsion [C]-N--CA-[C] |==|  0.54265
USER: genes 23 Torsion [N]-CA--C-[O] |==|  0.98294
ROOT
ATOM      1  CA  THR G   3      14.223  37.607  42.238  1.00 68.23 LIG 0.20  C 
ENDROOT
BRANCH 1 2
ATOM      2  N   THR G   3      15.628  37.626  41.843  1.00 68.42 LIG-0.34  N 
ATOM      3  C   ARG G   2      16.035  37.436  40.591  1.00 70.38 LIG 0.24  C 
ATOM      4 O    ARG G   2      15.280  37.120  39.664  1.00 69.46 LIG-0.27  OA
ATOM      5 H    THR G   3      16.168  37.770  42.497  1.00 68.42 LIG 0.16  HD
BRANCH 3 6
ATOM      6  CA  ARG G   2      17.532  37.605  40.353  1.00 72.62 LIG 0.18  C 
BRANCH 6 7
ATOM      7  N   ARG G   2      17.816  37.411  38.934  1.00 74.86 LIG-0.35  N 
ATOM      8  C   ALA G   1      18.193  36.233  38.441  1.00 76.29 LIG 0.25  C 
ATOM      9 O    ALA G   1      18.504  35.267  39.144  1.00 75.70 LIG-0.27  OA
ATOM     10 H    ARG G   2      17.717  38.119  38.454  1.00 74.86 LIG 0.16  HD
BRANCH 8 11
ATOM     11  CA  ALA G   1      18.238  36.129  36.925  1.00 78.97 LIG 0.27  C 
ATOM     12  CB  ALA G   1      17.613  34.812  36.478  1.00 79.33 LIG 0.05  C 
BRANCH 11 13
ATOM     13  N   ALA G   1      19.639  36.239  36.433  1.00 81.42 LIG-0.07  N 
ATOM     14 H3   ALA G   1      20.202  36.167  37.120  1.00 81.42 LIG 0.28  HD
ATOM     15 H2   ALA G   1      19.754  37.029  36.038  1.00 81.42 LIG 0.28  HD
ATOM     16 H1   ALA G   1      19.801  35.589  35.848  1.00 81.42 LIG 0.28  HD
ENDBRANCH 11 13
ENDBRANCH 8 11
ENDBRANCH 6 7
BRANCH 6 17
ATOM     17  CB  ARG G   2      18.007  38.984  40.822  1.00 73.45 LIG 0.04  C 
BRANCH 17 18
ATOM     18  CG  ARG G   2      19.459  39.265  40.475  1.00 75.79 LIG 0.02  C 
BRANCH 18 19
ATOM     19  CD  ARG G   2      20.294  37.996  40.405  1.00 77.52 LIG 0.14  C 
BRANCH 19 20
ATOM     20  NE  ARG G   2      21.378  38.124  39.427  1.00 80.25 LIG-0.23  N 
ATOM     21  CZ  ARG G   2      22.002  37.111  38.819  1.00 82.01 LIG 0.67  C 
ATOM     22  NH1 ARG G   2      21.676  35.840  39.065  1.00 81.47 LIG-0.23  N 
ATOM     23  NH2 ARG G   2      22.977  37.371  37.952  1.00 84.93 LIG-0.23  N 
ATOM     24 1HH1 ARG G   2      21.051  35.657  39.627  1.00 81.47 LIG 0.17  HD
ATOM     25 2HH1 ARG G   2      22.091  35.203  38.662  1.00 81.47 LIG 0.17  HD
ATOM     26 2HH2 ARG G   2      23.384  36.725  37.555  1.00 84.93 LIG 0.17  HD
ATOM     27 1HH2 ARG G   2      23.200  38.185  37.786  1.00 84.93 LIG 0.17  HD
ATOM     28 HE   ARG G   2      21.635  38.921  39.227  1.00 80.25 LIG 0.18  HD
ENDBRANCH 19 20
ENDBRANCH 18 19
ENDBRANCH 17 18
ENDBRANCH 6 17
ENDBRANCH 3 6
ENDBRANCH 1 2
BRANCH 1 29
ATOM     29  CB  THR G   3      13.647  36.171  42.256  1.00 68.23 LIG 0.15  C 
ATOM     30  CG2 THR G   3      14.267  35.356  43.376  1.00 68.63 LIG 0.04  C 
BRANCH 29 31
ATOM     31 OG1  THR G   3      12.224  36.212  42.427  1.00 67.51 LIG-0.39  OA
ATOM     32 HG1  THR G   3      12.041  36.553  43.172  1.00 67.51 LIG 0.21  HD
ENDBRANCH 29 31
ENDBRANCH 1 29
BRANCH 1 33
ATOM     33  C   THR G   3      14.052  38.234  43.618  1.00 68.02 LIG 0.24  C 
ATOM     34  N   ALA G   4      12.796  38.391  44.032  1.00 68.86 LIG-0.35  N 
ATOM     35 H    ALA G   4      12.111  38.203  43.547  1.00 68.86 LIG 0.16  HD
ATOM     36 O    THR G   3      15.033  38.570  44.285  1.00 67.54 LIG-0.27  OA
BRANCH 34 37
ATOM     37  CA  ALA G   4      12.459  38.902  45.363  1.00 69.75 LIG 0.17  C 
ATOM     38  CB  ALA G   4      12.721  37.835  46.413  1.00 70.86 LIG 0.04  C 
BRANCH 37 39
ATOM     39  C   ALA G   4      13.214  40.191  45.714  1.00 71.43 LIG 0.24  C 
ATOM     40  N   ALA G   5      13.213  41.157  44.792  1.00 71.85 LIG-0.35  N 
ATOM     41 H    ALA G   5      12.868  41.066  44.010  1.00 71.85 LIG 0.16  HD
ATOM     42 O    ALA G   4      13.783  40.298  46.804  1.00 72.80 LIG-0.27  OA
BRANCH 40 43
ATOM     43  CA  ALA G   5      13.809  42.476  45.032  1.00 72.89 LIG 0.17  C 
ATOM     44  CB  ALA G   5      13.379  43.016  46.390  1.00 72.65 LIG 0.04  C 
BRANCH 43 45
ATOM     45  C   ALA G   5      15.338  42.444  44.932  1.00 72.87 LIG 0.24  C 
ATOM     46  N   THR G   6      15.953  41.369  45.432  1.00 71.86 LIG-0.34  N 
ATOM     47 H    THR G   6      15.540  40.716  45.810  1.00 71.86 LIG 0.16  HD
ATOM     48 O    ALA G   5      15.942  43.383  44.409  1.00 74.40 LIG-0.27  OA
BRANCH 46 49
ATOM     49  CA  THR G   6      17.416  41.203  45.376  1.00 72.17 LIG 0.20  C 
BRANCH 49 50
ATOM     50  CB  THR G   6      17.893  40.643  44.015  1.00 71.29 LIG 0.15  C 
ATOM     51  CG2 THR G   6      18.676  39.347  44.206  1.00 70.64 LIG 0.04  C 
BRANCH 50 52
ATOM     52 OG1  THR G   6      16.768  40.403  43.162  1.00 70.47 LIG-0.39  OA
ATOM     53 HG1  THR G   6      16.161  40.021  43.599  1.00 70.47 LIG 0.21  HD
ENDBRANCH 50 52
ENDBRANCH 49 50
BRANCH 49 54
ATOM     54  C   THR G   6      18.167  42.510  45.671  1.00 73.53 LIG 0.24  C 
ATOM     55  N   ALA G   7      18.120  42.963  46.927  1.00 73.25 LIG-0.35  N 
ATOM     56 H    ALA G   7      17.630  42.608  47.539  1.00 73.25 LIG 0.16  HD
ATOM     57 O    THR G   6      18.763  43.094  44.763  1.00 75.15 LIG-0.27  OA
BRANCH 55 58
ATOM     58  CA  ALA G   7      18.903  44.117  47.393  1.00 74.45 LIG 0.16  C 
ATOM     59  CB  ALA G   7      18.323  45.412  46.843  1.00 73.04 LIG 0.04  C 
BRANCH 58 60
ATOM     60  C   ALA G   7      18.939  44.163  48.921  1.00 76.13 LIG 0.22  C 
ATOM     61 O    ALA G   7      18.273  43.377  49.596  1.00 77.97 LIG-0.29  OA
ENDBRANCH 58 60
ENDBRANCH 55 58
ENDBRANCH 49 54
ENDBRANCH 46 49
ENDBRANCH 43 45
ENDBRANCH 40 43
ENDBRANCH 37 39
ENDBRANCH 34 37
ENDBRANCH 1 33
TORSDOF 22
ENDMDL
MODEL 71
USER: ADFR SOLUTION from run 134
USER: SCORE 16.261733 LL:  -4.326 LR: -14.465 RR:   0.000 FEB:  -7.902
USER: RMSD 3.553067
USER: SEED 133
USER: STATUS no improvement in best in 10 clusters for 5 generations
USER: GENES 24
USER: genes 0 Translation |==|  0.33014 0.50541 0.45006
USER: genes 1 Rotation |==|  0.43260 0.56040 0.57123 0.98655
USER: genes 2 Torsion [CB]-CA--N-[C] |==|  0.27632
USER: genes 3 Torsion [N]-C--CA-[N] |==|  0.53731
USER: genes 4 Torsion [C]-CA--N-[C] |==|  0.74778
USER: genes 5 Torsion [N]-C--CA-[N] |==|  0.29091
USER: genes 6 Torsion [C]-CA--N-[H1] |==|  0.70196
USER: genes 7 Torsion [C]-CA--CB-[CG] |==|  0.62513
USER: genes 8 Torsion [CA]-CB--CG-[CD] |==|  0.58403
USER: genes 9 Torsion [CB]-CG--CD-[NE] |==|  0.42873
USER: genes 10 Torsion [CG]-CD--NE-[CZ] |==|  0.30179
USER: genes 11 Torsion [N]-CA--CB-[OG1] |==|  0.61506
USER: genes 12 Torsion [CA]-CB--OG1-[HG1] |==|  0.70298
USER: genes 13 Torsion [N]-CA--C-[N] |==|  0.45647
USER: genes 14 Torsion [C]-N--CA-[CB] |==|  0.54105
USER: genes 15 Torsion [N]-CA--C-[N] |==|  0.40961
USER: genes 16 Torsion [C]-N--CA-[CB] |==|  0.87994
USER: genes 17 Torsion [N]-CA--C-[N] |==|  0.88678
USER: genes 18 Torsion [C]-N--CA-[CB] |==|  0.50000
USER: genes 19 Torsion [N]-CA--CB-[CG2] |==|  0.87125
USER: genes 20 Torsion [CA]-CB--OG1-[HG1] |==|  0.87778
USER: genes 21 Torsion [N]-CA--C-[N] |==|  0.46207
USER: genes 22 Torsion [C]-N--CA-[C] |==|  0.76760
USER: genes 23 Torsion [N]-CA--C-[O] |==|  0.02360
ROOT
ATOM      1  CA  THR G   3      14.316  38.251  42.152  1.00 68.23 LIG 0.20  C 
ENDROOT
BRANCH 1 2
ATOM      2  N   THR G   3      15.723  38.251  41.763  1.00 68.42 LIG-0.34  N 
ATOM      3  C   ARG G   2      16.157  37.777  40.597  1.00 70.38 LIG 0.24  C 
ATOM      4 O    ARG G   2      15.433  37.194  39.782  1.00 69.46 LIG-0.27  OA
ATOM      5 H    THR G   3      16.245  38.587  42.357  1.00 68.42 LIG 0.16  HD
BRANCH 3 6
ATOM      6  CA  ARG G   2      17.645  37.967  40.322  1.00 72.62 LIG 0.18  C 
BRANCH 6 7
ATOM      7  N   ARG G   2      17.908  37.699  38.911  1.00 74.86 LIG-0.35  N 
ATOM      8  C   ALA G   1      18.234  36.486  38.469  1.00 76.29 LIG 0.25  C 
ATOM      9 O    ALA G   1      18.512  35.540  39.213  1.00 75.70 LIG-0.27  OA
ATOM     10 H    ARG G   2      17.834  38.388  38.401  1.00 74.86 LIG 0.16  HD
BRANCH 8 11
ATOM     11  CA  ALA G   1      18.262  36.313  36.959  1.00 78.97 LIG 0.27  C 
ATOM     12  CB  ALA G   1      17.513  35.043  36.570  1.00 79.33 LIG 0.05  C 
BRANCH 11 13
ATOM     13  N   ALA G   1      19.665  36.270  36.462  1.00 81.42 LIG-0.07  N 
ATOM     14 H3   ALA G   1      19.761  35.585  35.901  1.00 81.42 LIG 0.28  HD
ATOM     15 H2   ALA G   1      20.220  36.169  37.150  1.00 81.42 LIG 0.28  HD
ATOM     16 H1   ALA G   1      19.854  37.029  36.038  1.00 81.42 LIG 0.28  HD
ENDBRANCH 11 13
ENDBRANCH 8 11
ENDBRANCH 6 7
BRANCH 6 17
ATOM     17  CB  ARG G   2      18.094  39.381  40.703  1.00 73.45 LIG 0.04  C 
BRANCH 17 18
ATOM     18  CG  ARG G   2      18.980  40.029  39.653  1.00 75.79 LIG 0.02  C 
BRANCH 18 19
ATOM     19  CD  ARG G   2      19.976  41.006  40.259  1.00 77.52 LIG 0.14  C 
BRANCH 19 20
ATOM     20  NE  ARG G   2      21.162  41.154  39.412  1.00 80.25 LIG-0.23  N 
ATOM     21  CZ  ARG G   2      21.471  42.233  38.686  1.00 82.01 LIG 0.67  C 
ATOM     22  NH1 ARG G   2      20.688  43.315  38.672  1.00 81.47 LIG-0.23  N 
ATOM     23  NH2 ARG G   2      22.582  42.232  37.955  1.00 84.93 LIG-0.23  N 
ATOM     24 1HH1 ARG G   2      19.964  43.328  39.137  1.00 81.47 LIG 0.17  HD
ATOM     25 2HH1 ARG G   2      20.907  43.998  38.198  1.00 81.47 LIG 0.17  HD
ATOM     26 2HH2 ARG G   2      22.789  42.922  37.485  1.00 84.93 LIG 0.17  HD
ATOM     27 1HH2 ARG G   2      23.094  41.540  37.951  1.00 84.93 LIG 0.17  HD
ATOM     28 HE   ARG G   2      21.706  40.488  39.378  1.00 80.25 LIG 0.18  HD
ENDBRANCH 19 20
ENDBRANCH 18 19
ENDBRANCH 17 18
ENDBRANCH 6 17
ENDBRANCH 3 6
ENDBRANCH 1 2
BRANCH 1 29
ATOM     29  CB  THR G   3      13.978  37.071  43.093  1.00 68.23 LIG 0.15  C 
ATOM     30  CG2 THR G   3      13.928  37.532  44.538  1.00 68.63 LIG 0.04  C 
BRANCH 29 31
ATOM     31 OG1  THR G   3      12.715  36.497  42.731  1.00 67.51 LIG-0.39  OA
ATOM     32 HG1  THR G   3      12.137  36.709  43.303  1.00 67.51 LIG 0.21  HD
ENDBRANCH 29 31
ENDBRANCH 1 29
BRANCH 1 33
ATOM     33  C   THR G   3      13.958  39.563  42.841  1.00 68.02 LIG 0.24  C 
ATOM     34  N   ALA G   4      12.656  39.823  42.952  1.00 68.86 LIG-0.35  N 
ATOM     35 H    ALA G   4      12.043  39.320  42.618  1.00 68.86 LIG 0.16  HD
ATOM     36 O    THR G   3      14.838  40.320  43.257  1.00 67.54 LIG-0.27  OA
BRANCH 34 37
ATOM     37  CA  ALA G   4      12.140  40.999  43.658  1.00 69.75 LIG 0.17  C 
ATOM     38  CB  ALA G   4      10.654  40.835  43.928  1.00 70.86 LIG 0.04  C 
BRANCH 37 39
ATOM     39  C   ALA G   4      12.891  41.284  44.965  1.00 71.43 LIG 0.24  C 
ATOM     40  N   ALA G   5      13.008  42.565  45.323  1.00 71.85 LIG-0.35  N 
ATOM     41 H    ALA G   5      12.740  43.220  44.835  1.00 71.85 LIG 0.16  HD
ATOM     42 O    ALA G   4      13.350  40.352  45.631  1.00 72.80 LIG-0.27  OA
BRANCH 40 43
ATOM     43  CA  ALA G   5      13.611  42.976  46.596  1.00 72.89 LIG 0.17  C 
ATOM     44  CB  ALA G   5      13.118  42.088  47.731  1.00 72.65 LIG 0.04  C 
BRANCH 43 45
ATOM     45  C   ALA G   5      15.142  42.963  46.537  1.00 72.87 LIG 0.24  C 
ATOM     46  N   THR G   6      15.713  41.942  45.893  1.00 71.86 LIG-0.34  N 
ATOM     47 H    THR G   6      15.271  41.299  45.531  1.00 71.86 LIG 0.16  HD
ATOM     48 O    ALA G   5      15.789  43.869  47.069  1.00 74.40 LIG-0.27  OA
BRANCH 46 49
ATOM     49  CA  THR G   6      17.174  41.825  45.743  1.00 72.17 LIG 0.20  C 
BRANCH 49 50
ATOM     50  CB  THR G   6      17.587  40.557  44.960  1.00 71.29 LIG 0.15  C 
ATOM     51  CG2 THR G   6      16.832  39.332  45.472  1.00 70.64 LIG 0.04  C 
BRANCH 50 52
ATOM     52 OG1  THR G   6      17.321  40.735  43.564  1.00 70.47 LIG-0.39  OA
ATOM     53 HG1  THR G   6      16.564  41.086  43.465  1.00 70.47 LIG 0.21  HD
ENDBRANCH 50 52
ENDBRANCH 49 50
BRANCH 49 54
ATOM     54  C   THR G   6      17.796  43.056  45.067  1.00 73.53 LIG 0.24  C 
ATOM     55  N   ALA G   7      19.125  43.176  45.137  1.00 73.25 LIG-0.35  N 
ATOM     56 H    ALA G   7      19.623  42.653  45.605  1.00 73.25 LIG 0.16  HD
ATOM     57 O    THR G   6      17.071  43.881  44.508  1.00 75.15 LIG-0.27  OA
BRANCH 55 58
ATOM     58  CA  ALA G   7      19.875  44.218  44.420  1.00 74.45 LIG 0.16  C 
ATOM     59  CB  ALA G   7      21.182  44.523  45.137  1.00 73.04 LIG 0.04  C 
BRANCH 58 60
ATOM     60  C   ALA G   7      20.153  43.788  42.979  1.00 76.13 LIG 0.22  C 
ATOM     61 O    ALA G   7      19.637  42.774  42.508  1.00 77.97 LIG-0.29  OA
ENDBRANCH 58 60
ENDBRANCH 55 58
ENDBRANCH 49 54
ENDBRANCH 46 49
ENDBRANCH 43 45
ENDBRANCH 40 43
ENDBRANCH 37 39
ENDBRANCH 34 37
ENDBRANCH 1 33
TORSDOF 22
ENDMDL
MODEL 72
USER: ADFR SOLUTION from run 29
USER: SCORE 15.048870 LL:  -3.194 LR: -14.451 RR:   0.000 FEB:  -7.889
USER: RMSD 4.298269
USER: SEED 28
USER: STATUS no improvement in best in 16 clusters for 5 generations
USER: GENES 24
USER: genes 0 Translation |==|  0.32194 0.48184 0.44493
USER: genes 1 Rotation |==|  0.49631 0.54492 0.55796 0.99458
USER: genes 2 Torsion [CB]-CA--N-[C] |==|  0.25899
USER: genes 3 Torsion [N]-C--CA-[N] |==|  0.52051
USER: genes 4 Torsion [C]-CA--N-[C] |==|  0.74859
USER: genes 5 Torsion [N]-C--CA-[N] |==|  0.26807
USER: genes 6 Torsion [C]-CA--N-[H1] |==|  0.70062
USER: genes 7 Torsion [C]-CA--CB-[CG] |==|  0.53733
USER: genes 8 Torsion [CA]-CB--CG-[CD] |==|  0.87876
USER: genes 9 Torsion [CB]-CG--CD-[NE] |==|  0.42461
USER: genes 10 Torsion [CG]-CD--NE-[CZ] |==|  0.60545
USER: genes 11 Torsion [N]-CA--CB-[OG1] |==|  0.36719
USER: genes 12 Torsion [CA]-CB--OG1-[HG1] |==|  0.34136
USER: genes 13 Torsion [N]-CA--C-[N] |==|  0.30936
USER: genes 14 Torsion [C]-N--CA-[CB] |==|  0.76313
USER: genes 15 Torsion [N]-CA--C-[N] |==|  0.62630
USER: genes 16 Torsion [C]-N--CA-[CB] |==|  0.86046
USER: genes 17 Torsion [N]-CA--C-[N] |==|  0.89494
USER: genes 18 Torsion [C]-N--CA-[CB] |==|  0.85139
USER: genes 19 Torsion [N]-CA--CB-[CG2] |==|  0.91218
USER: genes 20 Torsion [CA]-CB--OG1-[HG1] |==|  0.86958
USER: genes 21 Torsion [N]-CA--C-[N] |==|  0.91574
USER: genes 22 Torsion [C]-N--CA-[C] |==|  0.64606
USER: genes 23 Torsion [N]-CA--C-[O] |==|  0.97605
ROOT
ATOM      1  CA  THR G   3      14.132  37.827  42.048  1.00 68.23 LIG 0.20  C 
ENDROOT
BRANCH 1 2
ATOM      2  N   THR G   3      15.551  37.809  41.706  1.00 68.42 LIG-0.34  N 
ATOM      3  C   ARG G   2      16.005  37.490  40.497  1.00 70.38 LIG 0.24  C 
ATOM      4 O    ARG G   2      15.285  37.075  39.581  1.00 69.46 LIG-0.27  OA
ATOM      5 H    THR G   3      16.065  38.023  42.360  1.00 68.42 LIG 0.16  HD
BRANCH 3 6
ATOM      6  CA  ARG G   2      17.510  37.638  40.298  1.00 72.62 LIG 0.18  C 
BRANCH 6 7
ATOM      7  N   ARG G   2      17.830  37.425  38.890  1.00 74.86 LIG-0.35  N 
ATOM      8  C   ALA G   1      18.129  36.222  38.405  1.00 76.29 LIG 0.25  C 
ATOM      9 O    ALA G   1      18.334  35.232  39.114  1.00 75.70 LIG-0.27  OA
ATOM     10 H    ARG G   2      17.807  38.140  38.411  1.00 74.86 LIG 0.16  HD
BRANCH 8 11
ATOM     11  CA  ALA G   1      18.223  36.118  36.891  1.00 78.97 LIG 0.27  C 
ATOM     12  CB  ALA G   1      17.622  34.797  36.425  1.00 79.33 LIG 0.05  C 
BRANCH 11 13
ATOM     13  N   ALA G   1      19.638  36.239  36.444  1.00 81.42 LIG-0.07  N 
ATOM     14 H3   ALA G   1      19.824  35.589  35.865  1.00 81.42 LIG 0.28  HD
ATOM     15 H2   ALA G   1      20.178  36.173  37.148  1.00 81.42 LIG 0.28  HD
ATOM     16 H1   ALA G   1      19.759  37.029  36.051  1.00 81.42 LIG 0.28  HD
ENDBRANCH 11 13
ENDBRANCH 8 11
ENDBRANCH 6 7
BRANCH 6 17
ATOM     17  CB  ARG G   2      17.989  39.016  40.766  1.00 73.45 LIG 0.04  C 
BRANCH 17 18
ATOM     18  CG  ARG G   2      19.397  39.348  40.303  1.00 75.79 LIG 0.02  C 
BRANCH 18 19
ATOM     19  CD  ARG G   2      20.351  38.174  40.465  1.00 77.52 LIG 0.14  C 
BRANCH 19 20
ATOM     20  NE  ARG G   2      21.447  38.241  39.495  1.00 80.25 LIG-0.23  N 
ATOM     21  CZ  ARG G   2      21.993  37.196  38.865  1.00 82.01 LIG 0.67  C 
ATOM     22  NH1 ARG G   2      21.567  35.949  39.078  1.00 81.47 LIG-0.23  N 
ATOM     23  NH2 ARG G   2      22.990  37.399  38.007  1.00 84.93 LIG-0.23  N 
ATOM     24 1HH1 ARG G   2      20.926  35.803  39.633  1.00 81.47 LIG 0.17  HD
ATOM     25 2HH1 ARG G   2      21.933  35.292  38.661  1.00 81.47 LIG 0.17  HD
ATOM     26 2HH2 ARG G   2      23.347  36.733  37.596  1.00 84.93 LIG 0.17  HD
ATOM     27 1HH2 ARG G   2      23.277  38.197  37.863  1.00 84.93 LIG 0.17  HD
ATOM     28 HE   ARG G   2      21.767  39.019  39.316  1.00 80.25 LIG 0.18  HD
ENDBRANCH 19 20
ENDBRANCH 18 19
ENDBRANCH 17 18
ENDBRANCH 6 17
ENDBRANCH 3 6
ENDBRANCH 1 2
BRANCH 1 29
ATOM     29  CB  THR G   3      13.666  36.480  42.650  1.00 68.23 LIG 0.15  C 
ATOM     30  CG2 THR G   3      14.855  35.595  42.973  1.00 68.63 LIG 0.04  C 
BRANCH 29 31
ATOM     31 OG1  THR G   3      12.904  36.710  43.842  1.00 67.51 LIG-0.39  OA
ATOM     32 HG1  THR G   3      12.144  36.362  43.760  1.00 67.51 LIG 0.21  HD
ENDBRANCH 29 31
ENDBRANCH 1 29
BRANCH 1 33
ATOM     33  C   THR G   3      13.840  38.949  43.039  1.00 68.02 LIG 0.24  C 
ATOM     34  N   ALA G   4      13.112  39.961  42.570  1.00 68.86 LIG-0.35  N 
ATOM     35 H    ALA G   4      12.856  40.020  41.751  1.00 68.86 LIG 0.16  HD
ATOM     36 O    THR G   3      14.267  38.899  44.194  1.00 67.54 LIG-0.27  OA
BRANCH 34 37
ATOM     37  CA  ALA G   4      12.675  41.078  43.412  1.00 69.75 LIG 0.17  C 
ATOM     38  CB  ALA G   4      11.382  40.718  44.125  1.00 70.86 LIG 0.04  C 
BRANCH 37 39
ATOM     39  C   ALA G   4      13.740  41.510  44.427  1.00 71.43 LIG 0.24  C 
ATOM     40  N   ALA G   5      13.327  41.722  45.678  1.00 71.85 LIG-0.35  N 
ATOM     41 H    ALA G   5      12.502  41.685  45.918  1.00 71.85 LIG 0.16  HD
ATOM     42 O    ALA G   4      14.915  41.645  44.072  1.00 72.80 LIG-0.27  OA
BRANCH 40 43
ATOM     43  CA  ALA G   5      14.252  42.041  46.771  1.00 72.89 LIG 0.17  C 
ATOM     44  CB  ALA G   5      15.402  41.043  46.805  1.00 72.65 LIG 0.04  C 
BRANCH 43 45
ATOM     45  C   ALA G   5      14.792  43.471  46.669  1.00 72.87 LIG 0.24  C 
ATOM     46  N   THR G   6      15.058  43.930  45.443  1.00 71.86 LIG-0.34  N 
ATOM     47 H    THR G   6      14.956  43.464  44.728  1.00 71.86 LIG 0.16  HD
ATOM     48 O    ALA G   5      14.961  44.142  47.690  1.00 74.40 LIG-0.27  OA
BRANCH 46 49
ATOM     49  CA  THR G   6      15.557  45.296  45.206  1.00 72.17 LIG 0.20  C 
BRANCH 49 50
ATOM     50  CB  THR G   6      14.656  46.372  45.855  1.00 71.29 LIG 0.15  C 
ATOM     51  CG2 THR G   6      13.198  45.920  45.877  1.00 70.64 LIG 0.04  C 
BRANCH 50 52
ATOM     52 OG1  THR G   6      15.096  46.638  47.192  1.00 70.47 LIG-0.39  OA
ATOM     53 HG1  THR G   6      15.226  45.913  47.595  1.00 70.47 LIG 0.21  HD
ENDBRANCH 50 52
ENDBRANCH 49 50
BRANCH 49 54
ATOM     54  C   THR G   6      16.999  45.488  45.696  1.00 73.53 LIG 0.24  C 
ATOM     55  N   ALA G   7      17.385  44.754  46.744  1.00 73.25 LIG-0.35  N 
ATOM     56 H    ALA G   7      16.847  44.256  47.194  1.00 73.25 LIG 0.16  HD
ATOM     57 O    THR G   6      17.735  46.302  45.133  1.00 75.15 LIG-0.27  OA
BRANCH 55 58
ATOM     58  CA  ALA G   7      18.771  44.722  47.234  1.00 74.45 LIG 0.16  C 
ATOM     59  CB  ALA G   7      18.874  45.418  48.584  1.00 73.04 LIG 0.04  C 
BRANCH 58 60
ATOM     60  C   ALA G   7      19.271  43.282  47.345  1.00 76.13 LIG 0.22  C 
ATOM     61 O    ALA G   7      18.504  42.329  47.196  1.00 77.97 LIG-0.29  OA
ENDBRANCH 58 60
ENDBRANCH 55 58
ENDBRANCH 49 54
ENDBRANCH 46 49
ENDBRANCH 43 45
ENDBRANCH 40 43
ENDBRANCH 37 39
ENDBRANCH 34 37
ENDBRANCH 1 33
TORSDOF 22
ENDMDL
MODEL 73
USER: ADFR SOLUTION from run 41
USER: SCORE 15.816919 LL:  -3.417 LR: -14.451 RR:   0.000 FEB:  -7.888
USER: RMSD 4.623681
USER: SEED 40
USER: STATUS no improvement in best in 17 clusters for 5 generations
USER: GENES 24
USER: genes 0 Translation |==|  0.32120 0.45700 0.45686
USER: genes 1 Rotation |==|  0.64758 0.53907 0.56154 0.97213
USER: genes 2 Torsion [CB]-CA--N-[C] |==|  0.17902
USER: genes 3 Torsion [N]-C--CA-[N] |==|  0.49986
USER: genes 4 Torsion [C]-CA--N-[C] |==|  0.75798
USER: genes 5 Torsion [N]-C--CA-[N] |==|  0.29524
USER: genes 6 Torsion [C]-CA--N-[H1] |==|  0.67999
USER: genes 7 Torsion [C]-CA--CB-[CG] |==|  0.51488
USER: genes 8 Torsion [CA]-CB--CG-[CD] |==|  0.33482
USER: genes 9 Torsion [CB]-CG--CD-[NE] |==|  0.53577
USER: genes 10 Torsion [CG]-CD--NE-[CZ] |==|  0.56492
USER: genes 11 Torsion [N]-CA--CB-[OG1] |==|  0.54641
USER: genes 12 Torsion [CA]-CB--OG1-[HG1] |==|  0.85798
USER: genes 13 Torsion [N]-CA--C-[N] |==|  0.57336
USER: genes 14 Torsion [C]-N--CA-[CB] |==|  0.77940
USER: genes 15 Torsion [N]-CA--C-[N] |==|  0.16618
USER: genes 16 Torsion [C]-N--CA-[CB] |==|  0.52778
USER: genes 17 Torsion [N]-CA--C-[N] |==|  0.30173
USER: genes 18 Torsion [C]-N--CA-[CB] |==|  0.85953
USER: genes 19 Torsion [N]-CA--CB-[CG2] |==|  0.55407
USER: genes 20 Torsion [CA]-CB--OG1-[HG1] |==|  0.92503
USER: genes 21 Torsion [N]-CA--C-[N] |==|  0.89213
USER: genes 22 Torsion [C]-N--CA-[C] |==|  0.77094
USER: genes 23 Torsion [N]-CA--C-[O] |==|  0.14371
ROOT
ATOM      1  CA  THR G   3      14.115  37.380  42.289  1.00 68.23 LIG 0.20  C 
ENDROOT
BRANCH 1 2
ATOM      2  N   THR G   3      15.515  37.545  41.912  1.00 68.42 LIG-0.34  N 
ATOM      3  C   ARG G   2      15.952  37.425  40.661  1.00 70.38 LIG 0.24  C 
ATOM      4 O    ARG G   2      15.242  37.057  39.719  1.00 69.46 LIG-0.27  OA
ATOM      5 H    THR G   3      16.032  37.727  42.575  1.00 68.42 LIG 0.16  HD
BRANCH 3 6
ATOM      6  CA  ARG G   2      17.428  37.744  40.446  1.00 72.62 LIG 0.18  C 
BRANCH 6 7
ATOM      7  N   ARG G   2      17.754  37.567  39.033  1.00 74.86 LIG-0.35  N 
ATOM      8  C   ALA G   1      18.121  36.389  38.534  1.00 76.29 LIG 0.25  C 
ATOM      9 O    ALA G   1      18.386  35.405  39.230  1.00 75.70 LIG-0.27  OA
ATOM     10 H    ARG G   2      17.688  38.284  38.564  1.00 74.86 LIG 0.16  HD
BRANCH 8 11
ATOM     11  CA  ALA G   1      18.214  36.308  37.018  1.00 78.97 LIG 0.27  C 
ATOM     12  CB  ALA G   1      17.474  35.073  36.519  1.00 79.33 LIG 0.05  C 
BRANCH 11 13
ATOM     13  N   ALA G   1      19.638  36.281  36.582  1.00 81.42 LIG-0.07  N 
ATOM     14 H3   ALA G   1      19.780  35.563  36.074  1.00 81.42 LIG 0.28  HD
ATOM     15 H2   ALA G   1      20.167  36.247  37.297  1.00 81.42 LIG 0.28  HD
ATOM     16 H1   ALA G   1      19.820  37.015  36.113  1.00 81.42 LIG 0.28  HD
ENDBRANCH 11 13
ENDBRANCH 8 11
ENDBRANCH 6 7
BRANCH 6 17
ATOM     17  CB  ARG G   2      17.751  39.169  40.906  1.00 73.45 LIG 0.04  C 
BRANCH 17 18
ATOM     18  CG  ARG G   2      19.177  39.589  40.597  1.00 75.79 LIG 0.02  C 
BRANCH 18 19
ATOM     19  CD  ARG G   2      19.239  40.816  39.701  1.00 77.52 LIG 0.14  C 
BRANCH 19 20
ATOM     20  NE  ARG G   2      20.589  41.022  39.170  1.00 80.25 LIG-0.23  N 
ATOM     21  CZ  ARG G   2      21.087  42.186  38.740  1.00 82.01 LIG 0.67  C 
ATOM     22  NH1 ARG G   2      20.362  43.307  38.757  1.00 81.47 LIG-0.23  N 
ATOM     23  NH2 ARG G   2      22.334  42.230  38.278  1.00 84.93 LIG-0.23  N 
ATOM     24 1HH1 ARG G   2      19.553  43.291  39.049  1.00 81.47 LIG 0.17  HD
ATOM     25 2HH1 ARG G   2      20.703  44.044  38.475  1.00 81.47 LIG 0.17  HD
ATOM     26 2HH2 ARG G   2      22.663  42.974  37.999  1.00 84.93 LIG 0.17  HD
ATOM     27 1HH2 ARG G   2      22.811  41.515  38.258  1.00 84.93 LIG 0.17  HD
ATOM     28 HE   ARG G   2      21.105  40.335  39.133  1.00 80.25 LIG 0.18  HD
ENDBRANCH 19 20
ENDBRANCH 18 19
ENDBRANCH 17 18
ENDBRANCH 6 17
ENDBRANCH 3 6
ENDBRANCH 1 2
BRANCH 1 29
ATOM     29  CB  THR G   3      13.616  35.937  42.039  1.00 68.23 LIG 0.15  C 
ATOM     30  CG2 THR G   3      14.148  34.992  43.100  1.00 68.63 LIG 0.04  C 
BRANCH 29 31
ATOM     31 OG1  THR G   3      12.183  35.903  42.044  1.00 67.51 LIG-0.39  OA
ATOM     32 HG1  THR G   3      11.896  36.279  42.738  1.00 67.51 LIG 0.21  HD
ENDBRANCH 29 31
ENDBRANCH 1 29
BRANCH 1 33
ATOM     33  C   THR G   3      13.917  37.733  43.760  1.00 68.02 LIG 0.24  C 
ATOM     34  N   ALA G   4      12.891  37.138  44.365  1.00 68.86 LIG-0.35  N 
ATOM     35 H    ALA G   4      12.334  36.624  43.958  1.00 68.86 LIG 0.16  HD
ATOM     36 O    THR G   3      14.673  38.524  44.327  1.00 67.54 LIG-0.27  OA
BRANCH 34 37
ATOM     37  CA  ALA G   4      12.610  37.304  45.794  1.00 69.75 LIG 0.17  C 
ATOM     38  CB  ALA G   4      13.530  36.414  46.613  1.00 70.86 LIG 0.04  C 
BRANCH 37 39
ATOM     39  C   ALA G   4      12.729  38.761  46.258  1.00 71.43 LIG 0.24  C 
ATOM     40  N   ALA G   5      11.922  39.646  45.669  1.00 71.85 LIG-0.35  N 
ATOM     41 H    ALA G   5      11.397  39.449  45.017  1.00 71.85 LIG 0.16  HD
ATOM     42 O    ALA G   4      13.540  39.068  47.137  1.00 72.80 LIG-0.27  OA
BRANCH 40 43
ATOM     43  CA  ALA G   5      11.858  41.052  46.083  1.00 72.89 LIG 0.17  C 
ATOM     44  CB  ALA G   5      10.687  41.754  45.406  1.00 72.65 LIG 0.04  C 
BRANCH 43 45
ATOM     45  C   ALA G   5      11.760  41.201  47.605  1.00 72.87 LIG 0.24  C 
ATOM     46  N   THR G   6      12.840  41.669  48.236  1.00 71.86 LIG-0.34  N 
ATOM     47 H    THR G   6      13.574  41.872  47.837  1.00 71.86 LIG 0.16  HD
ATOM     48 O    ALA G   5      10.719  40.894  48.190  1.00 74.40 LIG-0.27  OA
BRANCH 46 49
ATOM     49  CA  THR G   6      12.867  41.882  49.693  1.00 72.17 LIG 0.20  C 
BRANCH 49 50
ATOM     50  CB  THR G   6      11.657  42.707  50.190  1.00 71.29 LIG 0.15  C 
ATOM     51  CG2 THR G   6      11.940  43.313  51.563  1.00 70.64 LIG 0.04  C 
BRANCH 50 52
ATOM     52 OG1  THR G   6      11.359  43.752  49.256  1.00 70.47 LIG-0.39  OA
ATOM     53 HG1  THR G   6      12.058  43.964  48.840  1.00 70.47 LIG 0.21  HD
ENDBRANCH 50 52
ENDBRANCH 49 50
BRANCH 49 54
ATOM     54  C   THR G   6      12.932  40.565  50.479  1.00 73.53 LIG 0.24  C 
ATOM     55  N   ALA G   7      12.209  39.544  50.009  1.00 73.25 LIG-0.35  N 
ATOM     56 H    ALA G   7      11.658  39.619  49.353  1.00 73.25 LIG 0.16  HD
ATOM     57 O    THR G   6      13.619  40.492  51.501  1.00 75.15 LIG-0.27  OA
BRANCH 55 58
ATOM     58  CA  ALA G   7      12.280  38.186  50.568  1.00 74.45 LIG 0.16  C 
ATOM     59  CB  ALA G   7      10.990  37.428  50.289  1.00 73.04 LIG 0.04  C 
BRANCH 58 60
ATOM     60  C   ALA G   7      13.473  37.427  49.989  1.00 76.13 LIG 0.22  C 
ATOM     61 O    ALA G   7      14.605  37.913  50.007  1.00 77.97 LIG-0.29  OA
ENDBRANCH 58 60
ENDBRANCH 55 58
ENDBRANCH 49 54
ENDBRANCH 46 49
ENDBRANCH 43 45
ENDBRANCH 40 43
ENDBRANCH 37 39
ENDBRANCH 34 37
ENDBRANCH 1 33
TORSDOF 22
ENDMDL
MODEL 74
USER: ADFR SOLUTION from run 188
USER: SCORE 16.246130 LL:  -3.602 LR: -14.455 RR:   0.000 FEB:  -7.892
USER: RMSD 2.998609
USER: SEED 187
USER: STATUS searching
USER: GENES 24
USER: genes 0 Translation |==|  0.32208 0.47219 0.44572
USER: genes 1 Rotation |==|  0.55612 0.53993 0.55735 0.99190
USER: genes 2 Torsion [CB]-CA--N-[C] |==|  0.22766
USER: genes 3 Torsion [N]-C--CA-[N] |==|  0.51299
USER: genes 4 Torsion [C]-CA--N-[C] |==|  0.75392
USER: genes 5 Torsion [N]-C--CA-[N] |==|  0.27126
USER: genes 6 Torsion [C]-CA--N-[H1] |==|  0.03400
USER: genes 7 Torsion [C]-CA--CB-[CG] |==|  0.51441
USER: genes 8 Torsion [CA]-CB--CG-[CD] |==|  0.91612
USER: genes 9 Torsion [CB]-CG--CD-[NE] |==|  0.40715
USER: genes 10 Torsion [CG]-CD--NE-[CZ] |==|  0.58189
USER: genes 11 Torsion [N]-CA--CB-[OG1] |==|  0.45238
USER: genes 12 Torsion [CA]-CB--OG1-[HG1] |==|  0.03824
USER: genes 13 Torsion [N]-CA--C-[N] |==|  0.98960
USER: genes 14 Torsion [C]-N--CA-[CB] |==|  0.86310
USER: genes 15 Torsion [N]-CA--C-[N] |==|  0.85161
USER: genes 16 Torsion [C]-N--CA-[CB] |==|  0.49459
USER: genes 17 Torsion [N]-CA--C-[N] |==|  0.47697
USER: genes 18 Torsion [C]-N--CA-[CB] |==|  0.86791
USER: genes 19 Torsion [N]-CA--CB-[CG2] |==|  0.59626
USER: genes 20 Torsion [CA]-CB--OG1-[HG1] |==|  0.80803
USER: genes 21 Torsion [N]-CA--C-[N] |==|  0.91637
USER: genes 22 Torsion [C]-N--CA-[C] |==|  0.69093
USER: genes 23 Torsion [N]-CA--C-[O] |==|  0.98775
ROOT
ATOM      1  CA  THR G   3      14.135  37.653  42.064  1.00 68.23 LIG 0.20  C 
ENDROOT
BRANCH 1 2
ATOM      2  N   THR G   3      15.551  37.687  41.711  1.00 68.42 LIG-0.34  N 
ATOM      3  C   ARG G   2      16.002  37.437  40.485  1.00 70.38 LIG 0.24  C 
ATOM      4 O    ARG G   2      15.285  37.049  39.555  1.00 69.46 LIG-0.27  OA
ATOM      5 H    THR G   3      16.066  37.882  42.371  1.00 68.42 LIG 0.16  HD
BRANCH 3 6
ATOM      6  CA  ARG G   2      17.501  37.632  40.282  1.00 72.62 LIG 0.18  C 
BRANCH 6 7
ATOM      7  N   ARG G   2      17.824  37.431  38.873  1.00 74.86 LIG-0.35  N 
ATOM      8  C   ALA G   1      18.123  36.231  38.378  1.00 76.29 LIG 0.25  C 
ATOM      9 O    ALA G   1      18.324  35.235  39.079  1.00 75.70 LIG-0.27  OA
ATOM     10 H    ARG G   2      17.804  38.149  38.401  1.00 74.86 LIG 0.16  HD
BRANCH 8 11
ATOM     11  CA  ALA G   1      18.219  36.140  36.863  1.00 78.97 LIG 0.27  C 
ATOM     12  CB  ALA G   1      17.591  34.837  36.382  1.00 79.33 LIG 0.05  C 
BRANCH 11 13
ATOM     13  N   ALA G   1      19.638  36.236  36.422  1.00 81.42 LIG-0.07  N 
ATOM     14 H3   ALA G   1      19.778  37.027  36.038  1.00 81.42 LIG 0.28  HD
ATOM     15 H2   ALA G   1      19.811  35.587  35.838  1.00 81.42 LIG 0.28  HD
ATOM     16 H1   ALA G   1      20.175  36.150  37.127  1.00 81.42 LIG 0.28  HD
ENDBRANCH 11 13
ENDBRANCH 8 11
ENDBRANCH 6 7
BRANCH 6 17
ATOM     17  CB  ARG G   2      17.939  39.023  40.751  1.00 73.45 LIG 0.04  C 
BRANCH 17 18
ATOM     18  CG  ARG G   2      19.400  39.320  40.458  1.00 75.79 LIG 0.02  C 
BRANCH 18 19
ATOM     19  CD  ARG G   2      20.260  38.065  40.472  1.00 77.52 LIG 0.14  C 
BRANCH 19 20
ATOM     20  NE  ARG G   2      21.353  38.157  39.501  1.00 80.25 LIG-0.23  N 
ATOM     21  CZ  ARG G   2      21.918  37.126  38.865  1.00 82.01 LIG 0.67  C 
ATOM     22  NH1 ARG G   2      21.517  35.870  39.073  1.00 81.47 LIG-0.23  N 
ATOM     23  NH2 ARG G   2      22.910  37.354  38.007  1.00 84.93 LIG-0.23  N 
ATOM     24 1HH1 ARG G   2      20.880  35.709  39.628  1.00 81.47 LIG 0.17  HD
ATOM     25 2HH1 ARG G   2      21.896  35.222  38.652  1.00 81.47 LIG 0.17  HD
ATOM     26 2HH2 ARG G   2      23.280  36.697  37.593  1.00 84.93 LIG 0.17  HD
ATOM     27 1HH2 ARG G   2      23.181  38.158  37.866  1.00 84.93 LIG 0.17  HD
ATOM     28 HE   ARG G   2      21.657  38.943  39.324  1.00 80.25 LIG 0.18  HD
ENDBRANCH 19 20
ENDBRANCH 18 19
ENDBRANCH 17 18
ENDBRANCH 6 17
ENDBRANCH 3 6
ENDBRANCH 1 2
BRANCH 1 29
ATOM     29  CB  THR G   3      13.641  36.213  42.336  1.00 68.23 LIG 0.15  C 
ATOM     30  CG2 THR G   3      14.667  35.434  43.139  1.00 68.63 LIG 0.04  C 
BRANCH 29 31
ATOM     31 OG1  THR G   3      12.399  36.243  43.050  1.00 67.51 LIG-0.39  OA
ATOM     32 HG1  THR G   3      12.079  37.019  43.022  1.00 67.51 LIG 0.21  HD
ENDBRANCH 29 31
ENDBRANCH 1 29
BRANCH 1 33
ATOM     33  C   THR G   3      13.876  38.515  43.295  1.00 68.02 LIG 0.24  C 
ATOM     34  N   ALA G   4      14.953  39.059  43.859  1.00 68.86 LIG-0.35  N 
ATOM     35 H    ALA G   4      15.756  38.906  43.591  1.00 68.86 LIG 0.16  HD
ATOM     36 O    THR G   3      12.731  38.677  43.723  1.00 67.54 LIG-0.27  OA
BRANCH 34 37
ATOM     37  CA  ALA G   4      14.872  39.977  44.998  1.00 69.75 LIG 0.17  C 
ATOM     38  CB  ALA G   4      13.847  41.064  44.720  1.00 70.86 LIG 0.04  C 
BRANCH 37 39
ATOM     39  C   ALA G   4      14.545  39.262  46.316  1.00 71.43 LIG 0.24  C 
ATOM     40  N   ALA G   5      13.461  38.483  46.323  1.00 71.85 LIG-0.35  N 
ATOM     41 H    ALA G   5      12.921  38.414  45.657  1.00 71.85 LIG 0.16  HD
ATOM     42 O    ALA G   4      15.271  39.418  47.302  1.00 72.80 LIG-0.27  OA
BRANCH 40 43
ATOM     43  CA  ALA G   5      13.087  37.663  47.481  1.00 72.89 LIG 0.17  C 
ATOM     44  CB  ALA G   5      11.784  36.923  47.211  1.00 72.65 LIG 0.04  C 
BRANCH 43 45
ATOM     45  C   ALA G   5      14.191  36.673  47.866  1.00 72.87 LIG 0.24  C 
ATOM     46  N   THR G   6      14.025  35.998  49.008  1.00 71.86 LIG-0.34  N 
ATOM     47 H    THR G   6      13.350  36.103  49.529  1.00 71.86 LIG 0.16  HD
ATOM     48 O    ALA G   5      15.174  36.528  47.136  1.00 74.40 LIG-0.27  OA
BRANCH 46 49
ATOM     49  CA  THR G   6      15.000  34.999  49.478  1.00 72.17 LIG 0.20  C 
BRANCH 49 50
ATOM     50  CB  THR G   6      15.413  34.009  48.365  1.00 71.29 LIG 0.15  C 
ATOM     51  CG2 THR G   6      15.660  32.616  48.940  1.00 70.64 LIG 0.04  C 
BRANCH 50 52
ATOM     52 OG1  THR G   6      14.388  33.940  47.366  1.00 70.47 LIG-0.39  OA
ATOM     53 HG1  THR G   6      13.709  33.562  47.686  1.00 70.47 LIG 0.21  HD
ENDBRANCH 50 52
ENDBRANCH 49 50
BRANCH 49 54
ATOM     54  C   THR G   6      16.263  35.642  50.069  1.00 73.53 LIG 0.24  C 
ATOM     55  N   ALA G   7      16.629  36.827  49.569  1.00 73.25 LIG-0.35  N 
ATOM     56 H    ALA G   7      16.245  37.191  48.891  1.00 73.25 LIG 0.16  HD
ATOM     57 O    THR G   6      16.894  35.058  50.953  1.00 75.15 LIG-0.27  OA
BRANCH 55 58
ATOM     58  CA  ALA G   7      17.727  37.629  50.128  1.00 74.45 LIG 0.16  C 
ATOM     59  CB  ALA G   7      18.730  37.989  49.041  1.00 73.04 LIG 0.04  C 
BRANCH 58 60
ATOM     60  C   ALA G   7      17.186  38.898  50.787  1.00 76.13 LIG 0.22  C 
ATOM     61 O    ALA G   7      15.988  39.180  50.735  1.00 77.97 LIG-0.29  OA
ENDBRANCH 58 60
ENDBRANCH 55 58
ENDBRANCH 49 54
ENDBRANCH 46 49
ENDBRANCH 43 45
ENDBRANCH 40 43
ENDBRANCH 37 39
ENDBRANCH 34 37
ENDBRANCH 1 33
TORSDOF 22
ENDMDL
MODEL 75
USER: ADFR SOLUTION from run 39
USER: SCORE 16.777983 LL:  -4.618 LR: -14.440 RR:   0.000 FEB:  -7.877
USER: RMSD 3.760245
USER: SEED 38
USER: STATUS no improvement in best in 5 clusters for 5 generations
USER: GENES 24
USER: genes 0 Translation |==|  0.32369 0.42958 0.44928
USER: genes 1 Rotation |==|  0.64226 0.54644 0.57830 0.97061
USER: genes 2 Torsion [CB]-CA--N-[C] |==|  0.21005
USER: genes 3 Torsion [N]-C--CA-[N] |==|  0.46559
USER: genes 4 Torsion [C]-CA--N-[C] |==|  0.77646
USER: genes 5 Torsion [N]-C--CA-[N] |==|  0.26575
USER: genes 6 Torsion [C]-CA--N-[H1] |==|  0.68979
USER: genes 7 Torsion [C]-CA--CB-[CG] |==|  0.49650
USER: genes 8 Torsion [CA]-CB--CG-[CD] |==|  0.35624
USER: genes 9 Torsion [CB]-CG--CD-[NE] |==|  0.55202
USER: genes 10 Torsion [CG]-CD--NE-[CZ] |==|  0.54200
USER: genes 11 Torsion [N]-CA--CB-[OG1] |==|  0.54561
USER: genes 12 Torsion [CA]-CB--OG1-[HG1] |==|  0.54762
USER: genes 13 Torsion [N]-CA--C-[N] |==|  0.55274
USER: genes 14 Torsion [C]-N--CA-[CB] |==|  0.78706
USER: genes 15 Torsion [N]-CA--C-[N] |==|  0.15206
USER: genes 16 Torsion [C]-N--CA-[CB] |==|  0.88151
USER: genes 17 Torsion [N]-CA--C-[N] |==|  0.91660
USER: genes 18 Torsion [C]-N--CA-[CB] |==|  0.19745
USER: genes 19 Torsion [N]-CA--CB-[CG2] |==|  0.69796
USER: genes 20 Torsion [CA]-CB--OG1-[HG1] |==|  0.65151
USER: genes 21 Torsion [N]-CA--C-[N] |==|  0.85523
USER: genes 22 Torsion [C]-N--CA-[C] |==|  0.63353
USER: genes 23 Torsion [N]-CA--C-[O] |==|  0.30567
ROOT
ATOM      1  CA  THR G   3      14.171  36.887  42.136  1.00 68.23 LIG 0.20  C 
ENDROOT
BRANCH 1 2
ATOM      2  N   THR G   3      15.553  37.149  41.747  1.00 68.42 LIG-0.34  N 
ATOM      3  C   ARG G   2      15.947  37.252  40.480  1.00 70.38 LIG 0.24  C 
ATOM      4 O    ARG G   2      15.211  37.029  39.513  1.00 69.46 LIG-0.27  OA
ATOM      5 H    THR G   3      16.090  37.230  42.414  1.00 68.42 LIG 0.16  HD
BRANCH 3 6
ATOM      6  CA  ARG G   2      17.407  37.641  40.274  1.00 72.62 LIG 0.18  C 
BRANCH 6 7
ATOM      7  N   ARG G   2      17.766  37.428  38.875  1.00 74.86 LIG-0.35  N 
ATOM      8  C   ALA G   1      18.078  36.226  38.398  1.00 76.29 LIG 0.25  C 
ATOM      9 O    ALA G   1      18.263  35.235  39.113  1.00 75.70 LIG-0.27  OA
ATOM     10 H    ARG G   2      17.757  38.143  38.396  1.00 74.86 LIG 0.16  HD
BRANCH 8 11
ATOM     11  CA  ALA G   1      18.213  36.122  36.887  1.00 78.97 LIG 0.27  C 
ATOM     12  CB  ALA G   1      17.644  34.792  36.407  1.00 79.33 LIG 0.05  C 
BRANCH 11 13
ATOM     13  N   ALA G   1      19.638  36.263  36.478  1.00 81.42 LIG-0.07  N 
ATOM     14 H3   ALA G   1      19.865  35.583  35.950  1.00 81.42 LIG 0.28  HD
ATOM     15 H2   ALA G   1      20.156  36.261  37.202  1.00 81.42 LIG 0.28  HD
ATOM     16 H1   ALA G   1      19.746  37.029  36.038  1.00 81.42 LIG 0.28  HD
ENDBRANCH 11 13
ENDBRANCH 8 11
ENDBRANCH 6 7
BRANCH 6 17
ATOM     17  CB  ARG G   2      17.646  39.098  40.684  1.00 73.45 LIG 0.04  C 
BRANCH 17 18
ATOM     18  CG  ARG G   2      19.094  39.532  40.528  1.00 75.79 LIG 0.02  C 
BRANCH 18 19
ATOM     19  CD  ARG G   2      19.229  40.818  39.727  1.00 77.52 LIG 0.14  C 
BRANCH 19 20
ATOM     20  NE  ARG G   2      20.591  40.985  39.213  1.00 80.25 LIG-0.23  N 
ATOM     21  CZ  ARG G   2      21.106  42.118  38.726  1.00 82.01 LIG 0.67  C 
ATOM     22  NH1 ARG G   2      20.388  43.242  38.663  1.00 81.47 LIG-0.23  N 
ATOM     23  NH2 ARG G   2      22.362  42.129  38.288  1.00 84.93 LIG-0.23  N 
ATOM     24 1HH1 ARG G   2      19.573  43.249  38.939  1.00 81.47 LIG 0.17  HD
ATOM     25 2HH1 ARG G   2      20.740  43.960  38.346  1.00 81.47 LIG 0.17  HD
ATOM     26 2HH2 ARG G   2      22.702  42.854  37.973  1.00 84.93 LIG 0.17  HD
ATOM     27 1HH2 ARG G   2      22.835  41.411  38.319  1.00 84.93 LIG 0.17  HD
ATOM     28 HE   ARG G   2      21.104  40.294  39.227  1.00 80.25 LIG 0.18  HD
ENDBRANCH 19 20
ENDBRANCH 18 19
ENDBRANCH 17 18
ENDBRANCH 6 17
ENDBRANCH 3 6
ENDBRANCH 1 2
BRANCH 1 29
ATOM     29  CB  THR G   3      13.780  35.407  41.913  1.00 68.23 LIG 0.15  C 
ATOM     30  CG2 THR G   3      14.392  34.520  42.981  1.00 68.63 LIG 0.04  C 
BRANCH 29 31
ATOM     31 OG1  THR G   3      12.353  35.265  41.934  1.00 67.51 LIG-0.39  OA
ATOM     32 HG1  THR G   3      12.154  34.457  42.048  1.00 67.51 LIG 0.21  HD
ENDBRANCH 29 31
ENDBRANCH 1 29
BRANCH 1 33
ATOM     33  C   THR G   3      13.956  37.248  43.602  1.00 68.02 LIG 0.24  C 
ATOM     34  N   ALA G   4      12.886  36.706  44.181  1.00 68.86 LIG-0.35  N 
ATOM     35 H    ALA G   4      12.314  36.221  43.760  1.00 68.86 LIG 0.16  HD
ATOM     36 O    THR G   3      14.736  38.001  44.188  1.00 67.54 LIG-0.27  OA
BRANCH 34 37
ATOM     37  CA  ALA G   4      12.580  36.885  45.603  1.00 69.75 LIG 0.17  C 
ATOM     38  CB  ALA G   4      13.481  35.999  46.446  1.00 70.86 LIG 0.04  C 
BRANCH 37 39
ATOM     39  C   ALA G   4      12.695  38.346  46.056  1.00 71.43 LIG 0.24  C 
ATOM     40  N   ALA G   5      11.980  39.244  45.374  1.00 71.85 LIG-0.35  N 
ATOM     41 H    ALA G   5      11.518  39.052  44.675  1.00 71.85 LIG 0.16  HD
ATOM     42 O    ALA G   4      13.420  38.644  47.010  1.00 72.80 LIG-0.27  OA
BRANCH 40 43
ATOM     43  CA  ALA G   5      11.917  40.658  45.760  1.00 72.89 LIG 0.17  C 
ATOM     44  CB  ALA G   5      11.764  40.793  47.269  1.00 72.65 LIG 0.04  C 
BRANCH 43 45
ATOM     45  C   ALA G   5      13.142  41.442  45.277  1.00 72.87 LIG 0.24  C 
ATOM     46  N   THR G   6      14.289  40.765  45.172  1.00 71.86 LIG-0.34  N 
ATOM     47 H    THR G   6      14.371  39.933  45.373  1.00 71.86 LIG 0.16  HD
ATOM     48 O    ALA G   5      13.041  42.641  45.005  1.00 74.40 LIG-0.27  OA
BRANCH 46 49
ATOM     49  CA  THR G   6      15.532  41.395  44.696  1.00 72.17 LIG 0.20  C 
BRANCH 49 50
ATOM     50  CB  THR G   6      16.121  42.388  45.725  1.00 71.29 LIG 0.15  C 
ATOM     51  CG2 THR G   6      15.956  43.828  45.247  1.00 70.64 LIG 0.04  C 
BRANCH 50 52
ATOM     52 OG1  THR G   6      15.471  42.224  46.991  1.00 70.47 LIG-0.39  OA
ATOM     53 HG1  THR G   6      15.164  42.964  47.246  1.00 70.47 LIG 0.21  HD
ENDBRANCH 50 52
ENDBRANCH 49 50
BRANCH 49 54
ATOM     54  C   THR G   6      16.608  40.364  44.322  1.00 73.53 LIG 0.24  C 
ATOM     55  N   ALA G   7      16.902  39.438  45.240  1.00 73.25 LIG-0.35  N 
ATOM     56 H    ALA G   7      16.583  39.447  46.039  1.00 73.25 LIG 0.16  HD
ATOM     57 O    THR G   6      17.164  40.428  43.224  1.00 75.15 LIG-0.27  OA
BRANCH 55 58
ATOM     58  CA  ALA G   7      17.801  38.305  44.976  1.00 74.45 LIG 0.16  C 
ATOM     59  CB  ALA G   7      19.143  38.520  45.660  1.00 73.04 LIG 0.04  C 
BRANCH 58 60
ATOM     60  C   ALA G   7      17.172  36.995  45.450  1.00 76.13 LIG 0.22  C 
ATOM     61 O    ALA G   7      16.787  36.147  44.644  1.00 77.97 LIG-0.29  OA
ENDBRANCH 58 60
ENDBRANCH 55 58
ENDBRANCH 49 54
ENDBRANCH 46 49
ENDBRANCH 43 45
ENDBRANCH 40 43
ENDBRANCH 37 39
ENDBRANCH 34 37
ENDBRANCH 1 33
TORSDOF 22
ENDMDL
MODEL 76
USER: ADFR SOLUTION from run 183
USER: SCORE 13.634281 LL:  -3.499 LR: -14.398 RR:   0.000 FEB:  -7.835
USER: RMSD 3.016003
USER: SEED 182
USER: STATUS no improvement in best in 4 clusters for 5 generations
USER: GENES 24
USER: genes 0 Translation |==|  0.33114 0.49412 0.44522
USER: genes 1 Rotation |==|  0.50581 0.54820 0.55739 0.99432
USER: genes 2 Torsion [CB]-CA--N-[C] |==|  0.24435
USER: genes 3 Torsion [N]-C--CA-[N] |==|  0.52158
USER: genes 4 Torsion [C]-CA--N-[C] |==|  0.77158
USER: genes 5 Torsion [N]-C--CA-[N] |==|  0.25380
USER: genes 6 Torsion [C]-CA--N-[H1] |==|  0.37763
USER: genes 7 Torsion [C]-CA--CB-[CG] |==|  0.39036
USER: genes 8 Torsion [CA]-CB--CG-[CD] |==|  0.18453
USER: genes 9 Torsion [CB]-CG--CD-[NE] |==|  0.77282
USER: genes 10 Torsion [CG]-CD--NE-[CZ] |==|  0.43786
USER: genes 11 Torsion [N]-CA--CB-[OG1] |==|  0.53249
USER: genes 12 Torsion [CA]-CB--OG1-[HG1] |==|  0.75440
USER: genes 13 Torsion [N]-CA--C-[N] |==|  0.43687
USER: genes 14 Torsion [C]-N--CA-[CB] |==|  0.47533
USER: genes 15 Torsion [N]-CA--C-[N] |==|  0.91830
USER: genes 16 Torsion [C]-N--CA-[CB] |==|  0.52222
USER: genes 17 Torsion [N]-CA--C-[N] |==|  0.98803
USER: genes 18 Torsion [C]-N--CA-[CB] |==|  0.86111
USER: genes 19 Torsion [N]-CA--CB-[CG2] |==|  0.47373
USER: genes 20 Torsion [CA]-CB--OG1-[HG1] |==|  0.50177
USER: genes 21 Torsion [N]-CA--C-[N] |==|  0.89381
USER: genes 22 Torsion [C]-N--CA-[C] |==|  0.75910
USER: genes 23 Torsion [N]-CA--C-[O] |==|  0.98882
ROOT
ATOM      1  CA  THR G   3      14.339  38.048  42.054  1.00 68.23 LIG 0.20  C 
ENDROOT
BRANCH 1 2
ATOM      2  N   THR G   3      15.751  38.035  41.687  1.00 68.42 LIG-0.34  N 
ATOM      3  C   ARG G   2      16.189  37.659  40.488  1.00 70.38 LIG 0.24  C 
ATOM      4 O    ARG G   2      15.461  37.184  39.609  1.00 69.46 LIG-0.27  OA
ATOM      5 H    THR G   3      16.274  38.292  42.319  1.00 68.42 LIG 0.16  HD
BRANCH 3 6
ATOM      6  CA  ARG G   2      17.687  37.820  40.253  1.00 72.62 LIG 0.18  C 
BRANCH 6 7
ATOM      7  N   ARG G   2      17.985  37.547  38.850  1.00 74.86 LIG-0.35  N 
ATOM      8  C   ALA G   1      18.136  36.308  38.386  1.00 76.29 LIG 0.25  C 
ATOM      9 O    ALA G   1      18.214  35.312  39.112  1.00 75.70 LIG-0.27  OA
ATOM     10 H    ARG G   2      18.052  38.251  38.360  1.00 74.86 LIG 0.16  HD
BRANCH 8 11
ATOM     11  CA  ALA G   1      18.221  36.168  36.875  1.00 78.97 LIG 0.27  C 
ATOM     12  CB  ALA G   1      17.574  34.859  36.438  1.00 79.33 LIG 0.05  C 
BRANCH 11 13
ATOM     13  N   ALA G   1      19.639  36.232  36.423  1.00 81.42 LIG-0.07  N 
ATOM     14 H3   ALA G   1      20.179  36.108  37.119  1.00 81.42 LIG 0.28  HD
ATOM     15 H2   ALA G   1      19.799  37.029  36.061  1.00 81.42 LIG 0.28  HD
ATOM     16 H1   ALA G   1      19.786  35.597  35.817  1.00 81.42 LIG 0.28  HD
ENDBRANCH 11 13
ENDBRANCH 8 11
ENDBRANCH 6 7
BRANCH 6 17
ATOM     17  CB  ARG G   2      18.153  39.226  40.646  1.00 73.45 LIG 0.04  C 
BRANCH 17 18
ATOM     18  CG  ARG G   2      19.503  39.236  41.343  1.00 75.79 LIG 0.02  C 
BRANCH 18 19
ATOM     19  CD  ARG G   2      20.633  38.804  40.421  1.00 77.52 LIG 0.14  C 
BRANCH 19 20
ATOM     20  NE  ARG G   2      20.717  37.344  40.328  1.00 80.25 LIG-0.23  N 
ATOM     21  CZ  ARG G   2      21.281  36.659  39.328  1.00 82.01 LIG 0.67  C 
ATOM     22  NH1 ARG G   2      21.838  37.277  38.283  1.00 81.47 LIG-0.23  N 
ATOM     23  NH2 ARG G   2      21.284  35.329  39.369  1.00 84.93 LIG-0.23  N 
ATOM     24 1HH1 ARG G   2      21.839  38.136  38.242  1.00 81.47 LIG 0.17  HD
ATOM     25 2HH1 ARG G   2      22.195  36.815  37.652  1.00 81.47 LIG 0.17  HD
ATOM     26 2HH2 ARG G   2      21.645  34.880  38.730  1.00 84.93 LIG 0.17  HD
ATOM     27 1HH2 ARG G   2      20.926  34.918  40.034  1.00 84.93 LIG 0.17  HD
ATOM     28 HE   ARG G   2      20.374  36.889  40.972  1.00 80.25 LIG 0.18  HD
ENDBRANCH 19 20
ENDBRANCH 18 19
ENDBRANCH 17 18
ENDBRANCH 6 17
ENDBRANCH 3 6
ENDBRANCH 1 2
BRANCH 1 29
ATOM     29  CB  THR G   3      13.875  36.683  42.616  1.00 68.23 LIG 0.15  C 
ATOM     30  CG2 THR G   3      14.477  36.433  43.986  1.00 68.63 LIG 0.04  C 
BRANCH 29 31
ATOM     31 OG1  THR G   3      12.445  36.647  42.708  1.00 67.51 LIG-0.39  OA
ATOM     32 HG1  THR G   3      12.205  36.950  43.453  1.00 67.51 LIG 0.21  HD
ENDBRANCH 29 31
ENDBRANCH 1 29
BRANCH 1 33
ATOM     33  C   THR G   3      14.071  39.135  43.089  1.00 68.02 LIG 0.24  C 
ATOM     34  N   ALA G   4      12.814  39.570  43.161  1.00 68.86 LIG-0.35  N 
ATOM     35 H    ALA G   4      12.190  39.303  42.632  1.00 68.86 LIG 0.16  HD
ATOM     36 O    THR G   3      14.980  39.569  43.799  1.00 67.54 LIG-0.27  OA
BRANCH 34 37
ATOM     37  CA  ALA G   4      12.372  40.551  44.155  1.00 69.75 LIG 0.17  C 
ATOM     38  CB  ALA G   4      10.955  41.005  43.845  1.00 70.86 LIG 0.04  C 
BRANCH 37 39
ATOM     39  C   ALA G   4      12.459  40.023  45.592  1.00 71.43 LIG 0.24  C 
ATOM     40  N   ALA G   5      12.312  38.707  45.758  1.00 71.85 LIG-0.35  N 
ATOM     41 H    ALA G   5      12.116  38.167  45.118  1.00 71.85 LIG 0.16  HD
ATOM     42 O    ALA G   4      12.660  40.803  46.528  1.00 72.80 LIG-0.27  OA
BRANCH 40 43
ATOM     43  CA  ALA G   5      12.471  38.054  47.062  1.00 72.89 LIG 0.17  C 
ATOM     44  CB  ALA G   5      12.439  36.539  46.907  1.00 72.65 LIG 0.04  C 
BRANCH 43 45
ATOM     45  C   ALA G   5      13.758  38.489  47.770  1.00 72.87 LIG 0.24  C 
ATOM     46  N   THR G   6      14.575  39.301  47.093  1.00 71.86 LIG-0.34  N 
ATOM     47 H    THR G   6      14.420  39.572  46.292  1.00 71.86 LIG 0.16  HD
ATOM     48 O    ALA G   5      14.000  38.091  48.912  1.00 74.40 LIG-0.27  OA
BRANCH 46 49
ATOM     49  CA  THR G   6      15.830  39.812  47.670  1.00 72.17 LIG 0.20  C 
BRANCH 49 50
ATOM     50  CB  THR G   6      15.626  40.426  49.074  1.00 71.29 LIG 0.15  C 
ATOM     51  CG2 THR G   6      16.968  40.730  49.735  1.00 70.64 LIG 0.04  C 
BRANCH 50 52
ATOM     52 OG1  THR G   6      14.856  41.630  48.975  1.00 70.47 LIG-0.39  OA
ATOM     53 HG1  THR G   6      14.756  41.963  49.740  1.00 70.47 LIG 0.21  HD
ENDBRANCH 50 52
ENDBRANCH 49 50
BRANCH 49 54
ATOM     54  C   THR G   6      16.923  38.735  47.748  1.00 73.53 LIG 0.24  C 
ATOM     55  N   ALA G   7      16.532  37.500  48.076  1.00 73.25 LIG-0.35  N 
ATOM     56 H    ALA G   7      15.729  37.309  48.321  1.00 73.25 LIG 0.16  HD
ATOM     57 O    THR G   6      18.098  39.036  47.526  1.00 75.15 LIG-0.27  OA
BRANCH 55 58
ATOM     58  CA  ALA G   7      17.434  36.340  48.051  1.00 74.45 LIG 0.16  C 
ATOM     59  CB  ALA G   7      17.000  35.305  49.079  1.00 73.04 LIG 0.04  C 
BRANCH 58 60
ATOM     60  C   ALA G   7      17.470  35.714  46.657  1.00 76.13 LIG 0.22  C 
ATOM     61 O    ALA G   7      16.748  36.135  45.753  1.00 77.97 LIG-0.29  OA
ENDBRANCH 58 60
ENDBRANCH 55 58
ENDBRANCH 49 54
ENDBRANCH 46 49
ENDBRANCH 43 45
ENDBRANCH 40 43
ENDBRANCH 37 39
ENDBRANCH 34 37
ENDBRANCH 1 33
TORSDOF 22
ENDMDL
MODEL 77
USER: ADFR SOLUTION from run 31
USER: SCORE 16.216907 LL:  -4.106 LR: -14.394 RR:   0.000 FEB:  -7.831
USER: RMSD 3.825913
USER: SEED 30
USER: STATUS searching
USER: GENES 24
USER: genes 0 Translation |==|  0.31958 0.47411 0.44644
USER: genes 1 Rotation |==|  0.55559 0.53628 0.55523 0.99249
USER: genes 2 Torsion [CB]-CA--N-[C] |==|  0.22746
USER: genes 3 Torsion [N]-C--CA-[N] |==|  0.51485
USER: genes 4 Torsion [C]-CA--N-[C] |==|  0.75356
USER: genes 5 Torsion [N]-C--CA-[N] |==|  0.26887
USER: genes 6 Torsion [C]-CA--N-[H1] |==|  0.68616
USER: genes 7 Torsion [C]-CA--CB-[CG] |==|  0.52486
USER: genes 8 Torsion [CA]-CB--CG-[CD] |==|  0.39450
USER: genes 9 Torsion [CB]-CG--CD-[NE] |==|  0.54511
USER: genes 10 Torsion [CG]-CD--NE-[CZ] |==|  0.46864
USER: genes 11 Torsion [N]-CA--CB-[OG1] |==|  0.50910
USER: genes 12 Torsion [CA]-CB--OG1-[HG1] |==|  0.88592
USER: genes 13 Torsion [N]-CA--C-[N] |==|  0.34215
USER: genes 14 Torsion [C]-N--CA-[CB] |==|  0.82222
USER: genes 15 Torsion [N]-CA--C-[N] |==|  0.01389
USER: genes 16 Torsion [C]-N--CA-[CB] |==|  0.84674
USER: genes 17 Torsion [N]-CA--C-[N] |==|  0.98518
USER: genes 18 Torsion [C]-N--CA-[CB] |==|  0.18534
USER: genes 19 Torsion [N]-CA--CB-[CG2] |==|  0.14567
USER: genes 20 Torsion [CA]-CB--OG1-[HG1] |==|  0.88739
USER: genes 21 Torsion [N]-CA--C-[N] |==|  0.03965
USER: genes 22 Torsion [C]-N--CA-[C] |==|  0.67276
USER: genes 23 Torsion [N]-CA--C-[O] |==|  0.04067
ROOT
ATOM      1  CA  THR G   3      14.079  37.688  42.078  1.00 68.23 LIG 0.20  C 
ENDROOT
BRANCH 1 2
ATOM      2  N   THR G   3      15.500  37.706  41.745  1.00 68.42 LIG-0.34  N 
ATOM      3  C   ARG G   2      15.966  37.450  40.526  1.00 70.38 LIG 0.24  C 
ATOM      4 O    ARG G   2      15.258  37.066  39.587  1.00 69.46 LIG-0.27  OA
ATOM      5 H    THR G   3      16.007  37.899  42.412  1.00 68.42 LIG 0.16  HD
BRANCH 3 6
ATOM      6  CA  ARG G   2      17.469  37.629  40.344  1.00 72.62 LIG 0.18  C 
BRANCH 6 7
ATOM      7  N   ARG G   2      17.807  37.436  38.937  1.00 74.86 LIG-0.35  N 
ATOM      8  C   ALA G   1      18.101  36.239  38.435  1.00 76.29 LIG 0.25  C 
ATOM      9 O    ALA G   1      18.285  35.235  39.130  1.00 75.70 LIG-0.27  OA
ATOM     10 H    ARG G   2      17.799  38.159  38.470  1.00 74.86 LIG 0.16  HD
BRANCH 8 11
ATOM     11  CA  ALA G   1      18.215  36.160  36.921  1.00 78.97 LIG 0.27  C 
ATOM     12  CB  ALA G   1      17.600  34.857  36.423  1.00 79.33 LIG 0.05  C 
BRANCH 11 13
ATOM     13  N   ALA G   1      19.638  36.267  36.497  1.00 81.42 LIG-0.07  N 
ATOM     14 H3   ALA G   1      19.843  35.580  35.968  1.00 81.42 LIG 0.28  HD
ATOM     15 H2   ALA G   1      20.164  36.255  37.215  1.00 81.42 LIG 0.28  HD
ATOM     16 H1   ALA G   1      19.760  37.029  36.053  1.00 81.42 LIG 0.28  HD
ENDBRANCH 11 13
ENDBRANCH 8 11
ENDBRANCH 6 7
BRANCH 6 17
ATOM     17  CB  ARG G   2      17.917  39.011  40.830  1.00 73.45 LIG 0.04  C 
BRANCH 17 18
ATOM     18  CG  ARG G   2      19.360  39.330  40.478  1.00 75.79 LIG 0.02  C 
BRANCH 18 19
ATOM     19  CD  ARG G   2      19.552  40.787  40.088  1.00 77.52 LIG 0.14  C 
BRANCH 19 20
ATOM     20  NE  ARG G   2      20.828  40.989  39.396  1.00 80.25 LIG-0.23  N 
ATOM     21  CZ  ARG G   2      21.193  42.098  38.745  1.00 82.01 LIG 0.67  C 
ATOM     22  NH1 ARG G   2      20.388  43.160  38.666  1.00 81.47 LIG-0.23  N 
ATOM     23  NH2 ARG G   2      22.385  42.146  38.156  1.00 84.93 LIG-0.23  N 
ATOM     24 1HH1 ARG G   2      19.613  43.141  39.038  1.00 81.47 LIG 0.17  HD
ATOM     25 2HH1 ARG G   2      20.644  43.863  38.241  1.00 81.47 LIG 0.17  HD
ATOM     26 2HH2 ARG G   2      22.629  42.856  37.735  1.00 84.93 LIG 0.17  HD
ATOM     27 1HH2 ARG G   2      22.912  41.468  38.196  1.00 84.93 LIG 0.17  HD
ATOM     28 HE   ARG G   2      21.391  40.339  39.411  1.00 80.25 LIG 0.18  HD
ENDBRANCH 19 20
ENDBRANCH 18 19
ENDBRANCH 17 18
ENDBRANCH 6 17
ENDBRANCH 3 6
ENDBRANCH 1 2
BRANCH 1 29
ATOM     29  CB  THR G   3      13.567  36.253  42.345  1.00 68.23 LIG 0.15  C 
ATOM     30  CG2 THR G   3      14.281  35.638  43.534  1.00 68.63 LIG 0.04  C 
BRANCH 29 31
ATOM     31 OG1  THR G   3      12.155  36.270  42.593  1.00 67.51 LIG-0.39  OA
ATOM     32 HG1  THR G   3      11.964  36.929  43.078  1.00 67.51 LIG 0.21  HD
ENDBRANCH 29 31
ENDBRANCH 1 29
BRANCH 1 33
ATOM     33  C   THR G   3      13.811  38.553  43.305  1.00 68.02 LIG 0.24  C 
ATOM     34  N   ALA G   4      12.922  39.531  43.142  1.00 68.86 LIG-0.35  N 
ATOM     35 H    ALA G   4      12.549  39.710  42.388  1.00 68.86 LIG 0.16  HD
ATOM     36 O    THR G   3      14.399  38.341  44.368  1.00 67.54 LIG-0.27  OA
BRANCH 34 37
ATOM     37  CA  ALA G   4      12.491  40.401  44.239  1.00 69.75 LIG 0.17  C 
ATOM     38  CB  ALA G   4      11.767  39.585  45.297  1.00 70.86 LIG 0.04  C 
BRANCH 37 39
ATOM     39  C   ALA G   4      13.651  41.181  44.871  1.00 71.43 LIG 0.24  C 
ATOM     40  N   ALA G   5      14.846  41.053  44.290  1.00 71.85 LIG-0.35  N 
ATOM     41 H    ALA G   5      15.000  40.520  43.633  1.00 71.85 LIG 0.16  HD
ATOM     42 O    ALA G   4      13.455  41.885  45.865  1.00 72.80 LIG-0.27  OA
BRANCH 40 43
ATOM     43  CA  ALA G   5      16.020  41.818  44.726  1.00 72.89 LIG 0.17  C 
ATOM     44  CB  ALA G   5      15.721  43.311  44.704  1.00 72.65 LIG 0.04  C 
BRANCH 43 45
ATOM     45  C   ALA G   5      16.501  41.392  46.118  1.00 72.87 LIG 0.24  C 
ATOM     46  N   THR G   6      15.750  40.498  46.768  1.00 71.86 LIG-0.34  N 
ATOM     47 H    THR G   6      15.019  40.171  46.454  1.00 71.86 LIG 0.16  HD
ATOM     48 O    ALA G   5      17.536  41.869  46.587  1.00 74.40 LIG-0.27  OA
BRANCH 46 49
ATOM     49  CA  THR G   6      16.114  39.988  48.101  1.00 72.17 LIG 0.20  C 
BRANCH 49 50
ATOM     50  CB  THR G   6      16.046  41.083  49.190  1.00 71.29 LIG 0.15  C 
ATOM     51  CG2 THR G   6      14.691  41.787  49.170  1.00 70.64 LIG 0.04  C 
BRANCH 50 52
ATOM     52 OG1  THR G   6      16.267  40.505  50.482  1.00 70.47 LIG-0.39  OA
ATOM     53 HG1  THR G   6      15.867  39.768  50.531  1.00 70.47 LIG 0.21  HD
ENDBRANCH 50 52
ENDBRANCH 49 50
BRANCH 49 54
ATOM     54  C   THR G   6      15.245  38.798  48.532  1.00 73.53 LIG 0.24  C 
ATOM     55  N   ALA G   7      14.514  38.207  47.582  1.00 73.25 LIG-0.35  N 
ATOM     56 H    ALA G   7      14.448  38.511  46.780  1.00 73.25 LIG 0.16  HD
ATOM     57 O    THR G   6      15.235  38.441  49.713  1.00 75.15 LIG-0.27  OA
BRANCH 55 58
ATOM     58  CA  ALA G   7      13.747  36.974  47.811  1.00 74.45 LIG 0.16  C 
ATOM     59  CB  ALA G   7      12.266  37.213  47.554  1.00 73.04 LIG 0.04  C 
BRANCH 58 60
ATOM     60  C   ALA G   7      14.261  35.845  46.917  1.00 76.13 LIG 0.22  C 
ATOM     61 O    ALA G   7      15.346  35.935  46.341  1.00 77.97 LIG-0.29  OA
ENDBRANCH 58 60
ENDBRANCH 55 58
ENDBRANCH 49 54
ENDBRANCH 46 49
ENDBRANCH 43 45
ENDBRANCH 40 43
ENDBRANCH 37 39
ENDBRANCH 34 37
ENDBRANCH 1 33
TORSDOF 22
ENDMDL
MODEL 78
USER: ADFR SOLUTION from run 68
USER: SCORE 15.749886 LL:  -3.320 LR: -14.393 RR:   0.000 FEB:  -7.831
USER: RMSD 2.929344
USER: SEED 67
USER: STATUS no improvement in best in 22 clusters for 5 generations
USER: GENES 24
USER: genes 0 Translation |==|  0.32662 0.48660 0.44526
USER: genes 1 Rotation |==|  0.51973 0.54440 0.55643 0.99442
USER: genes 2 Torsion [CB]-CA--N-[C] |==|  0.23314
USER: genes 3 Torsion [N]-C--CA-[N] |==|  0.52749
USER: genes 4 Torsion [C]-CA--N-[C] |==|  0.75952
USER: genes 5 Torsion [N]-C--CA-[N] |==|  0.25971
USER: genes 6 Torsion [C]-CA--N-[H1] |==|  0.70389
USER: genes 7 Torsion [C]-CA--CB-[CG] |==|  0.50917
USER: genes 8 Torsion [CA]-CB--CG-[CD] |==|  0.93033
USER: genes 9 Torsion [CB]-CG--CD-[NE] |==|  0.40545
USER: genes 10 Torsion [CG]-CD--NE-[CZ] |==|  0.56649
USER: genes 11 Torsion [N]-CA--CB-[OG1] |==|  0.52748
USER: genes 12 Torsion [CA]-CB--OG1-[HG1] |==|  0.72712
USER: genes 13 Torsion [N]-CA--C-[N] |==|  0.42577
USER: genes 14 Torsion [C]-N--CA-[CB] |==|  0.50119
USER: genes 15 Torsion [N]-CA--C-[N] |==|  0.39601
USER: genes 16 Torsion [C]-N--CA-[CB] |==|  0.83759
USER: genes 17 Torsion [N]-CA--C-[N] |==|  0.43734
USER: genes 18 Torsion [C]-N--CA-[CB] |==|  0.86230
USER: genes 19 Torsion [N]-CA--CB-[CG2] |==|  0.55399
USER: genes 20 Torsion [CA]-CB--OG1-[HG1] |==|  0.13951
USER: genes 21 Torsion [N]-CA--C-[N] |==|  0.36259
USER: genes 22 Torsion [C]-N--CA-[C] |==|  0.79761
USER: genes 23 Torsion [N]-CA--C-[O] |==|  0.94482
ROOT
ATOM      1  CA  THR G   3      14.237  37.913  42.055  1.00 68.23 LIG 0.20  C 
ENDROOT
BRANCH 1 2
ATOM      2  N   THR G   3      15.653  37.907  41.699  1.00 68.42 LIG-0.34  N 
ATOM      3  C   ARG G   2      16.103  37.520  40.508  1.00 70.38 LIG 0.24  C 
ATOM      4 O    ARG G   2      15.386  37.029  39.629  1.00 69.46 LIG-0.27  OA
ATOM      5 H    THR G   3      16.168  38.176  42.332  1.00 68.42 LIG 0.16  HD
BRANCH 3 6
ATOM      6  CA  ARG G   2      17.602  37.691  40.284  1.00 72.62 LIG 0.18  C 
BRANCH 6 7
ATOM      7  N   ARG G   2      17.906  37.452  38.876  1.00 74.86 LIG-0.35  N 
ATOM      8  C   ALA G   1      18.145  36.233  38.400  1.00 76.29 LIG 0.25  C 
ATOM      9 O    ALA G   1      18.306  35.240  39.115  1.00 75.70 LIG-0.27  OA
ATOM     10 H    ARG G   2      17.915  38.164  38.392  1.00 74.86 LIG 0.16  HD
BRANCH 8 11
ATOM     11  CA  ALA G   1      18.227  36.113  36.886  1.00 78.97 LIG 0.27  C 
ATOM     12  CB  ALA G   1      17.628  34.785  36.439  1.00 79.33 LIG 0.05  C 
BRANCH 11 13
ATOM     13  N   ALA G   1      19.638  36.236  36.426  1.00 81.42 LIG-0.07  N 
ATOM     14 H3   ALA G   1      19.817  35.591  35.840  1.00 81.42 LIG 0.28  HD
ATOM     15 H2   ALA G   1      20.185  36.162  37.125  1.00 81.42 LIG 0.28  HD
ATOM     16 H1   ALA G   1      19.757  37.029  36.040  1.00 81.42 LIG 0.28  HD
ENDBRANCH 11 13
ENDBRANCH 8 11
ENDBRANCH 6 7
BRANCH 6 17
ATOM     17  CB  ARG G   2      18.063  39.088  40.714  1.00 73.45 LIG 0.04  C 
BRANCH 17 18
ATOM     18  CG  ARG G   2      19.535  39.342  40.439  1.00 75.79 LIG 0.02  C 
BRANCH 18 19
ATOM     19  CD  ARG G   2      20.345  38.057  40.387  1.00 77.52 LIG 0.14  C 
BRANCH 19 20
ATOM     20  NE  ARG G   2      21.435  38.153  39.413  1.00 80.25 LIG-0.23  N 
ATOM     21  CZ  ARG G   2      22.027  37.121  38.803  1.00 82.01 LIG 0.67  C 
ATOM     22  NH1 ARG G   2      21.658  35.860  39.043  1.00 81.47 LIG-0.23  N 
ATOM     23  NH2 ARG G   2      23.012  37.352  37.938  1.00 84.93 LIG-0.23  N 
ATOM     24 1HH1 ARG G   2      21.026  35.697  39.603  1.00 81.47 LIG 0.17  HD
ATOM     25 2HH1 ARG G   2      22.053  35.212  38.638  1.00 81.47 LIG 0.17  HD
ATOM     26 2HH2 ARG G   2      23.398  36.694  37.541  1.00 84.93 LIG 0.17  HD
ATOM     27 1HH2 ARG G   2      23.262  38.159  37.777  1.00 84.93 LIG 0.17  HD
ATOM     28 HE   ARG G   2      21.719  38.941  39.217  1.00 80.25 LIG 0.18  HD
ENDBRANCH 19 20
ENDBRANCH 18 19
ENDBRANCH 17 18
ENDBRANCH 6 17
ENDBRANCH 3 6
ENDBRANCH 1 2
BRANCH 1 29
ATOM     29  CB  THR G   3      13.756  36.523  42.535  1.00 68.23 LIG 0.15  C 
ATOM     30  CG2 THR G   3      14.378  36.171  43.873  1.00 68.63 LIG 0.04  C 
BRANCH 29 31
ATOM     31 OG1  THR G   3      12.328  36.509  42.653  1.00 67.51 LIG-0.39  OA
ATOM     32 HG1  THR G   3      12.112  36.635  43.455  1.00 67.51 LIG 0.21  HD
ENDBRANCH 29 31
ENDBRANCH 1 29
BRANCH 1 33
ATOM     33  C   THR G   3      13.970  38.942  43.147  1.00 68.02 LIG 0.24  C 
ATOM     34  N   ALA G   4      12.738  39.446  43.180  1.00 68.86 LIG-0.35  N 
ATOM     35 H    ALA G   4      12.132  39.253  42.601  1.00 68.86 LIG 0.16  HD
ATOM     36 O    THR G   3      14.859  39.272  43.935  1.00 67.54 LIG-0.27  OA
BRANCH 34 37
ATOM     37  CA  ALA G   4      12.293  40.384  44.215  1.00 69.75 LIG 0.17  C 
ATOM     38  CB  ALA G   4      10.840  40.764  43.984  1.00 70.86 LIG 0.04  C 
BRANCH 37 39
ATOM     39  C   ALA G   4      12.480  39.835  45.635  1.00 71.43 LIG 0.24  C 
ATOM     40  N   ALA G   5      12.858  40.708  46.571  1.00 71.85 LIG-0.35  N 
ATOM     41 H    ALA G   5      13.052  41.529  46.403  1.00 71.85 LIG 0.16  HD
ATOM     42 O    ALA G   4      12.282  38.639  45.868  1.00 72.80 LIG-0.27  OA
BRANCH 40 43
ATOM     43  CA  ALA G   5      12.977  40.344  47.987  1.00 72.89 LIG 0.17  C 
ATOM     44  CB  ALA G   5      11.648  39.826  48.518  1.00 72.65 LIG 0.04  C 
BRANCH 43 45
ATOM     45  C   ALA G   5      14.084  39.311  48.224  1.00 72.87 LIG 0.24  C 
ATOM     46  N   THR G   6      14.596  39.248  49.457  1.00 71.86 LIG-0.34  N 
ATOM     47 H    THR G   6      14.349  39.759  50.102  1.00 71.86 LIG 0.16  HD
ATOM     48 O    ALA G   5      14.462  38.587  47.301  1.00 74.40 LIG-0.27  OA
BRANCH 46 49
ATOM     49  CA  THR G   6      15.647  38.282  49.822  1.00 72.17 LIG 0.20  C 
BRANCH 49 50
ATOM     50  CB  THR G   6      15.300  36.841  49.383  1.00 71.29 LIG 0.15  C 
ATOM     51  CG2 THR G   6      16.125  35.820  50.163  1.00 70.64 LIG 0.04  C 
BRANCH 50 52
ATOM     52 OG1  THR G   6      13.905  36.588  49.588  1.00 70.47 LIG-0.39  OA
ATOM     53 HG1  THR G   6      13.454  37.208  49.246  1.00 70.47 LIG 0.21  HD
ENDBRANCH 50 52
ENDBRANCH 49 50
BRANCH 49 54
ATOM     54  C   THR G   6      17.021  38.663  49.251  1.00 73.53 LIG 0.24  C 
ATOM     55  N   ALA G   7      18.051  38.661  50.103  1.00 73.25 LIG-0.35  N 
ATOM     56 H    ALA G   7      17.962  38.542  50.950  1.00 73.25 LIG 0.16  HD
ATOM     57 O    THR G   6      17.128  38.965  48.061  1.00 75.15 LIG-0.27  OA
BRANCH 55 58
ATOM     58  CA  ALA G   7      19.443  38.862  49.678  1.00 74.45 LIG 0.16  C 
ATOM     59  CB  ALA G   7      20.326  39.178  50.877  1.00 73.04 LIG 0.04  C 
BRANCH 58 60
ATOM     60  C   ALA G   7      19.969  37.627  48.947  1.00 76.13 LIG 0.22  C 
ATOM     61 O    ALA G   7      19.426  36.530  49.083  1.00 77.97 LIG-0.29  OA
ENDBRANCH 58 60
ENDBRANCH 55 58
ENDBRANCH 49 54
ENDBRANCH 46 49
ENDBRANCH 43 45
ENDBRANCH 40 43
ENDBRANCH 37 39
ENDBRANCH 34 37
ENDBRANCH 1 33
TORSDOF 22
ENDMDL
MODEL 79
USER: ADFR SOLUTION from run 106
USER: SCORE 14.200252 LL:  -2.936 LR: -14.392 RR:   0.000 FEB:  -7.829
USER: RMSD 4.216214
USER: SEED 105
USER: STATUS no improvement in best in 14 clusters for 5 generations
USER: GENES 24
USER: genes 0 Translation |==|  0.32089 0.49191 0.45351
USER: genes 1 Rotation |==|  0.44333 0.55606 0.55047 0.99102
USER: genes 2 Torsion [CB]-CA--N-[C] |==|  0.28805
USER: genes 3 Torsion [N]-C--CA-[N] |==|  0.55415
USER: genes 4 Torsion [C]-CA--N-[C] |==|  0.75180
USER: genes 5 Torsion [N]-C--CA-[N] |==|  0.07511
USER: genes 6 Torsion [C]-CA--N-[H1] |==|  0.16218
USER: genes 7 Torsion [C]-CA--CB-[CG] |==|  0.56300
USER: genes 8 Torsion [CA]-CB--CG-[CD] |==|  0.81643
USER: genes 9 Torsion [CB]-CG--CD-[NE] |==|  0.40805
USER: genes 10 Torsion [CG]-CD--NE-[CZ] |==|  0.65548
USER: genes 11 Torsion [N]-CA--CB-[OG1] |==|  0.61913
USER: genes 12 Torsion [CA]-CB--OG1-[HG1] |==|  0.71395
USER: genes 13 Torsion [N]-CA--C-[N] |==|  0.45078
USER: genes 14 Torsion [C]-N--CA-[CB] |==|  0.53890
USER: genes 15 Torsion [N]-CA--C-[N] |==|  0.67186
USER: genes 16 Torsion [C]-N--CA-[CB] |==|  0.87709
USER: genes 17 Torsion [N]-CA--C-[N] |==|  0.87317
USER: genes 18 Torsion [C]-N--CA-[CB] |==|  0.86574
USER: genes 19 Torsion [N]-CA--CB-[CG2] |==|  0.42269
USER: genes 20 Torsion [CA]-CB--OG1-[HG1] |==|  0.04940
USER: genes 21 Torsion [N]-CA--C-[N] |==|  0.89218
USER: genes 22 Torsion [C]-N--CA-[C] |==|  0.60006
USER: genes 23 Torsion [N]-CA--C-[O] |==|  0.02690
ROOT
ATOM      1  CA  THR G   3      14.108  38.008  42.222  1.00 68.23 LIG 0.20  C 
ENDROOT
BRANCH 1 2
ATOM      2  N   THR G   3      15.519  37.900  41.864  1.00 68.42 LIG-0.34  N 
ATOM      3  C   ARG G   2      15.939  37.509  40.664  1.00 70.38 LIG 0.24  C 
ATOM      4 O    ARG G   2      15.186  37.096  39.775  1.00 69.46 LIG-0.27  OA
ATOM      5 H    THR G   3      16.054  38.114  42.503  1.00 68.42 LIG 0.16  HD
BRANCH 3 6
ATOM      6  CA  ARG G   2      17.447  37.568  40.442  1.00 72.62 LIG 0.18  C 
BRANCH 6 7
ATOM      7  N   ARG G   2      17.720  37.570  39.008  1.00 74.86 LIG-0.35  N 
ATOM      8  C   ALA G   1      17.885  36.445  38.316  1.00 76.29 LIG 0.25  C 
ATOM      9 O    ALA G   1      17.998  35.332  38.840  1.00 75.70 LIG-0.27  OA
ATOM     10 H    ARG G   2      17.763  38.355  38.658  1.00 74.86 LIG 0.16  HD
BRANCH 8 11
ATOM     11  CA  ALA G   1      17.942  36.594  36.804  1.00 78.97 LIG 0.27  C 
ATOM     12  CB  ALA G   1      18.831  35.507  36.210  1.00 79.33 LIG 0.05  C 
BRANCH 11 13
ATOM     13  N   ALA G   1      18.441  37.946  36.430  1.00 81.42 LIG-0.07  N 
ATOM     14 H3   ALA G   1      17.882  38.566  36.741  1.00 81.42 LIG 0.28  HD
ATOM     15 H2   ALA G   1      18.491  38.009  35.544  1.00 81.42 LIG 0.28  HD
ATOM     16 H1   ALA G   1      19.249  38.072  36.782  1.00 81.42 LIG 0.28  HD
ENDBRANCH 11 13
ENDBRANCH 8 11
ENDBRANCH 6 7
BRANCH 6 17
ATOM     17  CB  ARG G   2      18.049  38.805  41.115  1.00 73.45 LIG 0.04  C 
BRANCH 17 18
ATOM     18  CG  ARG G   2      19.377  39.228  40.510  1.00 75.79 LIG 0.02  C 
BRANCH 18 19
ATOM     19  CD  ARG G   2      20.473  38.200  40.744  1.00 77.52 LIG 0.14  C 
BRANCH 19 20
ATOM     20  NE  ARG G   2      21.416  38.162  39.623  1.00 80.25 LIG-0.23  N 
ATOM     21  CZ  ARG G   2      21.732  37.078  38.907  1.00 82.01 LIG 0.67  C 
ATOM     22  NH1 ARG G   2      21.190  35.886  39.167  1.00 81.47 LIG-0.23  N 
ATOM     23  NH2 ARG G   2      22.610  37.185  37.914  1.00 84.93 LIG-0.23  N 
ATOM     24 1HH1 ARG G   2      20.624  35.802  39.809  1.00 81.47 LIG 0.17  HD
ATOM     25 2HH1 ARG G   2      21.408  35.202  38.693  1.00 81.47 LIG 0.17  HD
ATOM     26 2HH2 ARG G   2      22.819  36.493  37.448  1.00 84.93 LIG 0.17  HD
ATOM     27 1HH2 ARG G   2      22.970  37.946  37.738  1.00 84.93 LIG 0.17  HD
ATOM     28 HE   ARG G   2      21.800  38.901  39.407  1.00 80.25 LIG 0.18  HD
ENDBRANCH 19 20
ENDBRANCH 18 19
ENDBRANCH 17 18
ENDBRANCH 6 17
ENDBRANCH 3 6
ENDBRANCH 1 2
BRANCH 1 29
ATOM     29  CB  THR G   3      13.646  36.829  43.110  1.00 68.23 LIG 0.15  C 
ATOM     30  CG2 THR G   3      13.564  37.251  44.565  1.00 68.63 LIG 0.04  C 
BRANCH 29 31
ATOM     31 OG1  THR G   3      12.363  36.358  42.677  1.00 67.51 LIG-0.39  OA
ATOM     32 HG1  THR G   3      11.770  36.640  43.200  1.00 67.51 LIG 0.21  HD
ENDBRANCH 29 31
ENDBRANCH 1 29
BRANCH 1 33
ATOM     33  C   THR G   3      13.846  39.321  42.952  1.00 68.02 LIG 0.24  C 
ATOM     34  N   ALA G   4      12.573  39.709  43.005  1.00 68.86 LIG-0.35  N 
ATOM     35 H    ALA G   4      11.932  39.287  42.617  1.00 68.86 LIG 0.16  HD
ATOM     36 O    THR G   3      14.773  39.964  43.448  1.00 67.54 LIG-0.27  OA
BRANCH 34 37
ATOM     37  CA  ALA G   4      12.140  40.903  43.738  1.00 69.75 LIG 0.17  C 
ATOM     38  CB  ALA G   4      10.630  40.893  43.905  1.00 70.86 LIG 0.04  C 
BRANCH 37 39
ATOM     39  C   ALA G   4      12.825  41.045  45.103  1.00 71.43 LIG 0.24  C 
ATOM     40  N   ALA G   5      12.034  41.020  46.177  1.00 71.85 LIG-0.35  N 
ATOM     41 H    ALA G   5      11.176  40.989  46.134  1.00 71.85 LIG 0.16  HD
ATOM     42 O    ALA G   4      14.051  41.171  45.170  1.00 72.80 LIG-0.27  OA
BRANCH 40 43
ATOM     43  CA  ALA G   5      12.562  41.045  47.546  1.00 72.89 LIG 0.17  C 
ATOM     44  CB  ALA G   5      13.743  40.092  47.679  1.00 72.65 LIG 0.04  C 
BRANCH 43 45
ATOM     45  C   ALA G   5      12.966  42.457  47.982  1.00 72.87 LIG 0.24  C 
ATOM     46  N   THR G   6      13.678  43.177  47.110  1.00 71.86 LIG-0.34  N 
ATOM     47 H    THR G   6      13.925  42.885  46.340  1.00 71.86 LIG 0.16  HD
ATOM     48 O    ALA G   5      12.635  42.880  49.091  1.00 74.40 LIG-0.27  OA
BRANCH 46 49
ATOM     49  CA  THR G   6      14.107  44.557  47.396  1.00 72.17 LIG 0.20  C 
BRANCH 49 50
ATOM     50  CB  THR G   6      12.951  45.435  47.929  1.00 71.29 LIG 0.15  C 
ATOM     51  CG2 THR G   6      13.483  46.550  48.826  1.00 70.64 LIG 0.04  C 
BRANCH 50 52
ATOM     52 OG1  THR G   6      12.224  46.006  46.834  1.00 70.47 LIG-0.39  OA
ATOM     53 HG1  THR G   6      12.396  45.579  46.130  1.00 70.47 LIG 0.21  HD
ENDBRANCH 50 52
ENDBRANCH 49 50
BRANCH 49 54
ATOM     54  C   THR G   6      15.278  44.615  48.388  1.00 73.53 LIG 0.24  C 
ATOM     55  N   ALA G   7      15.256  43.743  49.401  1.00 73.25 LIG-0.35  N 
ATOM     56 H    ALA G   7      14.588  43.224  49.562  1.00 73.25 LIG 0.16  HD
ATOM     57 O    THR G   6      16.172  45.450  48.234  1.00 75.15 LIG-0.27  OA
BRANCH 55 58
ATOM     58  CA  ALA G   7      16.371  43.582  50.344  1.00 74.45 LIG 0.16  C 
ATOM     59  CB  ALA G   7      16.158  44.452  51.575  1.00 73.04 LIG 0.04  C 
BRANCH 58 60
ATOM     60  C   ALA G   7      16.523  42.117  50.755  1.00 76.13 LIG 0.22  C 
ATOM     61 O    ALA G   7      15.892  41.228  50.181  1.00 77.97 LIG-0.29  OA
ENDBRANCH 58 60
ENDBRANCH 55 58
ENDBRANCH 49 54
ENDBRANCH 46 49
ENDBRANCH 43 45
ENDBRANCH 40 43
ENDBRANCH 37 39
ENDBRANCH 34 37
ENDBRANCH 1 33
TORSDOF 22
ENDMDL
MODEL 80
USER: ADFR SOLUTION from run 167
USER: SCORE 13.940003 LL:  -3.217 LR: -14.376 RR:   0.000 FEB:  -7.813
USER: RMSD 3.814109
USER: SEED 166
USER: STATUS no improvement in best in 10 clusters for 5 generations
USER: GENES 24
USER: genes 0 Translation |==|  0.33130 0.50172 0.44644
USER: genes 1 Rotation |==|  0.44474 0.55365 0.57173 0.98880
USER: genes 2 Torsion [CB]-CA--N-[C] |==|  0.26667
USER: genes 3 Torsion [N]-C--CA-[N] |==|  0.53843
USER: genes 4 Torsion [C]-CA--N-[C] |==|  0.77133
USER: genes 5 Torsion [N]-C--CA-[N] |==|  0.26952
USER: genes 6 Torsion [C]-CA--N-[H1] |==|  0.69159
USER: genes 7 Torsion [C]-CA--CB-[CG] |==|  0.50154
USER: genes 8 Torsion [CA]-CB--CG-[CD] |==|  0.41119
USER: genes 9 Torsion [CB]-CG--CD-[NE] |==|  0.56339
USER: genes 10 Torsion [CG]-CD--NE-[CZ] |==|  0.45612
USER: genes 11 Torsion [N]-CA--CB-[OG1] |==|  0.40383
USER: genes 12 Torsion [CA]-CB--OG1-[HG1] |==|  0.36597
USER: genes 13 Torsion [N]-CA--C-[N] |==|  0.46933
USER: genes 14 Torsion [C]-N--CA-[CB] |==|  0.47720
USER: genes 15 Torsion [N]-CA--C-[N] |==|  0.11310
USER: genes 16 Torsion [C]-N--CA-[CB] |==|  0.88045
USER: genes 17 Torsion [N]-CA--C-[N] |==|  0.92723
USER: genes 18 Torsion [C]-N--CA-[CB] |==|  0.85758
USER: genes 19 Torsion [N]-CA--CB-[CG2] |==|  0.90958
USER: genes 20 Torsion [CA]-CB--OG1-[HG1] |==|  0.83705
USER: genes 21 Torsion [N]-CA--C-[N] |==|  0.90722
USER: genes 22 Torsion [C]-N--CA-[C] |==|  0.49283
USER: genes 23 Torsion [N]-CA--C-[O] |==|  0.30898
ROOT
ATOM      1  CA  THR G   3      14.342  38.185  42.078  1.00 68.23 LIG 0.20  C 
ENDROOT
BRANCH 1 2
ATOM      2  N   THR G   3      15.757  38.203  41.718  1.00 68.42 LIG-0.34  N 
ATOM      3  C   ARG G   2      16.221  37.727  40.565  1.00 70.38 LIG 0.24  C 
ATOM      4 O    ARG G   2      15.523  37.130  39.738  1.00 69.46 LIG-0.27  OA
ATOM      5 H    THR G   3      16.262  38.549  42.322  1.00 68.42 LIG 0.16  HD
BRANCH 3 6
ATOM      6  CA  ARG G   2      17.711  37.937  40.319  1.00 72.62 LIG 0.18  C 
BRANCH 6 7
ATOM      7  N   ARG G   2      18.006  37.673  38.913  1.00 74.86 LIG-0.35  N 
ATOM      8  C   ALA G   1      18.194  36.440  38.448  1.00 76.29 LIG 0.25  C 
ATOM      9 O    ALA G   1      18.312  35.447  39.172  1.00 75.70 LIG-0.27  OA
ATOM     10 H    ARG G   2      18.046  38.379  38.423  1.00 74.86 LIG 0.16  HD
BRANCH 8 11
ATOM     11  CA  ALA G   1      18.272  36.304  36.935  1.00 78.97 LIG 0.27  C 
ATOM     12  CB  ALA G   1      17.542  35.042  36.491  1.00 79.33 LIG 0.05  C 
BRANCH 11 13
ATOM     13  N   ALA G   1      19.691  36.278  36.484  1.00 81.42 LIG-0.07  N 
ATOM     14 H3   ALA G   1      19.821  35.576  35.952  1.00 81.42 LIG 0.28  HD
ATOM     15 H2   ALA G   1      20.226  36.217  37.192  1.00 81.42 LIG 0.28  HD
ATOM     16 H1   ALA G   1      19.875  37.026  36.038  1.00 81.42 LIG 0.28  HD
ENDBRANCH 11 13
ENDBRANCH 8 11
ENDBRANCH 6 7
BRANCH 6 17
ATOM     17  CB  ARG G   2      18.135  39.356  40.710  1.00 73.45 LIG 0.04  C 
BRANCH 17 18
ATOM     18  CG  ARG G   2      19.611  39.626  40.473  1.00 75.79 LIG 0.02  C 
BRANCH 18 19
ATOM     19  CD  ARG G   2      19.883  41.076  40.103  1.00 77.52 LIG 0.14  C 
BRANCH 19 20
ATOM     20  NE  ARG G   2      21.147  41.213  39.375  1.00 80.25 LIG-0.23  N 
ATOM     21  CZ  ARG G   2      21.523  42.279  38.663  1.00 82.01 LIG 0.67  C 
ATOM     22  NH1 ARG G   2      20.742  43.356  38.549  1.00 81.47 LIG-0.23  N 
ATOM     23  NH2 ARG G   2      22.702  42.269  38.046  1.00 84.93 LIG-0.23  N 
ATOM     24 1HH1 ARG G   2      19.976  43.375  38.940  1.00 81.47 LIG 0.17  HD
ATOM     25 2HH1 ARG G   2      21.006  44.031  38.086  1.00 81.47 LIG 0.17  HD
ATOM     26 2HH2 ARG G   2      22.953  42.950  37.586  1.00 84.93 LIG 0.17  HD
ATOM     27 1HH2 ARG G   2      23.214  41.580  38.108  1.00 84.93 LIG 0.17  HD
ATOM     28 HE   ARG G   2      21.694  40.549  39.409  1.00 80.25 LIG 0.18  HD
ENDBRANCH 19 20
ENDBRANCH 18 19
ENDBRANCH 17 18
ENDBRANCH 6 17
ENDBRANCH 3 6
ENDBRANCH 1 2
BRANCH 1 29
ATOM     29  CB  THR G   3      13.984  36.958  42.949  1.00 68.23 LIG 0.15  C 
ATOM     30  CG2 THR G   3      15.209  36.439  43.680  1.00 68.63 LIG 0.04  C 
BRANCH 29 31
ATOM     31 OG1  THR G   3      12.972  37.308  43.902  1.00 67.51 LIG-0.39  OA
ATOM     32 HG1  THR G   3      12.362  36.730  43.888  1.00 67.51 LIG 0.21  HD
ENDBRANCH 29 31
ENDBRANCH 1 29
BRANCH 1 33
ATOM     33  C   THR G   3      13.971  39.460  42.828  1.00 68.02 LIG 0.24  C 
ATOM     34  N   ALA G   4      12.668  39.667  43.010  1.00 68.86 LIG-0.35  N 
ATOM     35 H    ALA G   4      12.058  39.152  42.689  1.00 68.86 LIG 0.16  HD
ATOM     36 O    THR G   3      14.843  40.234  43.227  1.00 67.54 LIG-0.27  OA
BRANCH 34 37
ATOM     37  CA  ALA G   4      12.146  40.799  43.779  1.00 69.75 LIG 0.17  C 
ATOM     38  CB  ALA G   4      10.635  40.875  43.636  1.00 70.86 LIG 0.04  C 
BRANCH 37 39
ATOM     39  C   ALA G   4      12.538  40.742  45.261  1.00 71.43 LIG 0.24  C 
ATOM     40  N   ALA G   5      13.784  40.352  45.538  1.00 71.85 LIG-0.35  N 
ATOM     41 H    ALA G   5      14.340  40.082  44.941  1.00 71.85 LIG 0.16  HD
ATOM     42 O    ALA G   4      11.718  41.051  46.131  1.00 72.80 LIG-0.27  OA
BRANCH 40 43
ATOM     43  CA  ALA G   5      14.324  40.347  46.902  1.00 72.89 LIG 0.17  C 
ATOM     44  CB  ALA G   5      13.924  41.619  47.639  1.00 72.65 LIG 0.04  C 
BRANCH 43 45
ATOM     45  C   ALA G   5      13.879  39.112  47.694  1.00 72.87 LIG 0.24  C 
ATOM     46  N   THR G   6      12.729  38.541  47.325  1.00 71.86 LIG-0.34  N 
ATOM     47 H    THR G   6      12.233  38.838  46.688  1.00 71.86 LIG 0.16  HD
ATOM     48 O    ALA G   5      14.573  38.690  48.621  1.00 74.40 LIG-0.27  OA
BRANCH 46 49
ATOM     49  CA  THR G   6      12.203  37.335  47.986  1.00 72.17 LIG 0.20  C 
BRANCH 49 50
ATOM     50  CB  THR G   6      13.253  36.203  48.067  1.00 71.29 LIG 0.15  C 
ATOM     51  CG2 THR G   6      14.186  36.238  46.859  1.00 70.64 LIG 0.04  C 
BRANCH 50 52
ATOM     52 OG1  THR G   6      14.021  36.332  49.270  1.00 70.47 LIG-0.39  OA
ATOM     53 HG1  THR G   6      14.400  37.081  49.282  1.00 70.47 LIG 0.21  HD
ENDBRANCH 50 52
ENDBRANCH 49 50
BRANCH 49 54
ATOM     54  C   THR G   6      11.668  37.623  49.396  1.00 73.53 LIG 0.24  C 
ATOM     55  N   ALA G   7      12.292  38.575  50.097  1.00 73.25 LIG-0.35  N 
ATOM     56 H    ALA G   7      13.013  38.961  49.830  1.00 73.25 LIG 0.16  HD
ATOM     57 O    THR G   6      10.714  36.977  49.835  1.00 75.15 LIG-0.27  OA
BRANCH 55 58
ATOM     58  CA  ALA G   7      11.809  39.061  51.398  1.00 74.45 LIG 0.16  C 
ATOM     59  CB  ALA G   7      11.644  37.902  52.370  1.00 73.04 LIG 0.04  C 
BRANCH 58 60
ATOM     60  C   ALA G   7      12.769  40.101  51.975  1.00 76.13 LIG 0.22  C 
ATOM     61 O    ALA G   7      12.442  41.285  52.069  1.00 77.97 LIG-0.29  OA
ENDBRANCH 58 60
ENDBRANCH 55 58
ENDBRANCH 49 54
ENDBRANCH 46 49
ENDBRANCH 43 45
ENDBRANCH 40 43
ENDBRANCH 37 39
ENDBRANCH 34 37
ENDBRANCH 1 33
TORSDOF 22
ENDMDL
