MODEL 1
USER: ADFR SOLUTION from run 194
USER: SCORE 7.290432 LL:  -2.606 LR:  -5.576 RR:   0.000 FEB:  -1.699
USER: RMSD 6.335720
USER: SEED 193
USER: STATUS no improvement in best in 37 clusters for 5 generations
USER: GENES 15
USER: genes 0 Translation |==|  0.66409 0.37227 0.53959
USER: genes 1 Rotation |==|  0.85245 0.81930 0.57583 0.63447
USER: genes 2 Torsion [CB]-CA--N-[C] |==|  0.84132
USER: genes 3 Torsion [N]-C--CA-[N] |==|  0.20897
USER: genes 4 Torsion [C]-CA--N-[C] |==|  0.79622
USER: genes 5 Torsion [N]-C--CA-[N] |==|  0.34081
USER: genes 6 Torsion [C]-CA--N-[C] |==|  0.84526
USER: genes 7 Torsion [N]-C--CA-[N] |==|  0.24163
USER: genes 8 Torsion [N]-CA--C-[N] |==|  0.38881
USER: genes 9 Torsion [C]-N--CA-[CB] |==|  0.81977
USER: genes 10 Torsion [N]-CA--C-[N] |==|  0.40654
USER: genes 11 Torsion [C]-N--CA-[CB] |==|  0.49445
USER: genes 12 Torsion [N]-CA--C-[N] |==|  0.44103
USER: genes 13 Torsion [C]-N--CA-[C] |==|  0.16755
USER: genes 14 Torsion [N]-CA--C-[O] |==|  0.07470
ROOT
ATOM      1  CA  ALA E  11       2.472  21.330   1.907  1.00 85.35 LIG 0.17  C 
ATOM      2  CB  ALA E  11       3.396  20.230   1.380  1.00 80.46 LIG 0.04  C 
ENDROOT
BRANCH 1 3
ATOM      3  N   ALA E  11       3.235  22.288   2.699  1.00 87.15 LIG-0.35  N 
ATOM      4  C   ALA E  10       3.940  21.881   3.757  1.00 62.15 LIG 0.24  C 
ATOM      5 O    ALA E  10       4.148  20.690   3.991  1.00 65.72 LIG-0.27  OA
ATOM      6 H    ALA E  11       3.187  23.104   2.429  1.00 87.15 LIG 0.16  HD
BRANCH 4 7
ATOM      7  CA  ALA E  10       4.498  22.953   4.687  1.00 66.45 LIG 0.17  C 
ATOM      8  CB  ALA E  10       5.613  22.373   5.557  1.00 58.63 LIG 0.04  C 
BRANCH 7 9
ATOM      9  N   ALA E  10       3.465  23.532   5.531  1.00 75.43 LIG-0.35  N 
ATOM     10  C   ALA E   9       2.541  24.375   5.073  1.00 82.21 LIG 0.24  C 
ATOM     11 O    ALA E   9       2.498  24.766   3.901  1.00 73.75 LIG-0.27  OA
ATOM     12 H    ALA E  10       3.506  23.281   6.353  1.00 75.43 LIG 0.16  HD
BRANCH 10 13
ATOM     13  CA  ALA E   9       1.526  24.875   6.092  1.00 87.65 LIG 0.17  C 
ATOM     14  CB  ALA E   9       0.121  24.382   5.754  1.00 72.21 LIG 0.04  C 
BRANCH 13 15
ATOM     15  N   ALA E   9       1.591  26.330   6.112  1.00 84.24 LIG-0.35  N 
ATOM     16 H    ALA E   9       0.838  26.718   5.962  1.00 84.24 LIG 0.16  HD
ATOM     17  C   ALA E   8       2.720  26.987   6.341  1.00 61.40 LIG 0.26  C 
ATOM     18 O    ALA E   8       3.767  26.420   6.646  1.00 66.21 LIG-0.27  OA
BRANCH 17 19
ATOM     19  CA  ALA E   8       2.651  28.507   6.240  1.00 67.03 LIG 0.40  C 
ATOM     20  N   ALA E   8       2.235  29.104   7.544  1.00 60.26 LIG 0.61  N 
ATOM     21  CB  ALA E   8       3.994  29.078   5.798  1.00 64.64 LIG 0.06  C 
ENDBRANCH 17 19
ENDBRANCH 13 15
ENDBRANCH 10 13
ENDBRANCH 7 9
ENDBRANCH 4 7
ENDBRANCH 1 3
BRANCH 1 22
ATOM     22  C   ALA E  11       1.332  20.720   2.713  1.00 81.78 LIG 0.24  C 
ATOM     23  N   ALA E  12       0.169  20.536   2.091  1.00 82.91 LIG-0.35  N 
ATOM     24 H    ALA E  12       0.045  20.631   1.245  1.00 82.91 LIG 0.16  HD
ATOM     25 O    ALA E  11       1.491  20.424   3.904  1.00 89.30 LIG-0.27  OA
BRANCH 23 26
ATOM     26  CA  ALA E  12      -1.012  20.143   2.847  1.00 61.10 LIG 0.17  C 
ATOM     27  CB  ALA E  12      -0.828  18.745   3.459  1.00 65.27 LIG 0.04  C 
BRANCH 26 28
ATOM     28  C   ALA E  12      -1.313  21.163   3.934  1.00 54.59 LIG 0.24  C 
ATOM     29  N   ALA E  13      -2.609  21.336   4.194  1.00 64.78 LIG-0.35  N 
ATOM     30 H    ALA E  13      -3.236  20.870   3.833  1.00 64.78 LIG 0.16  HD
ATOM     31 O    ALA E  12      -0.409  21.743   4.540  1.00 69.11 LIG-0.27  OA
BRANCH 29 32
ATOM     32  CA  ALA E  13      -3.081  22.345   5.128  1.00 54.23 LIG 0.17  C 
ATOM     33  CB  ALA E  13      -4.609  22.337   5.180  1.00 56.27 LIG 0.04  C 
BRANCH 32 34
ATOM     34  C   ALA E  13      -2.554  22.123   6.535  1.00 65.29 LIG 0.24  C 
ATOM     35  N   ALA E  14      -2.563  23.194   7.320  1.00 85.74 LIG-0.35  N 
ATOM     36 H    ALA E  14      -2.811  23.974   7.055  1.00 85.74 LIG 0.16  HD
ATOM     37 O    ALA E  13      -2.206  21.004   6.921  1.00 75.52 LIG-0.27  OA
BRANCH 35 38
ATOM     38  CA  ALA E  14      -2.152  23.148   8.711  1.00 94.46 LIG 0.16  C 
ATOM     39  CB  ALA E  14      -3.057  22.220   9.490  1.00106.12 LIG 0.04  C 
BRANCH 38 40
ATOM     40  C   ALA E  14      -0.701  22.695   8.820  1.00 99.07 LIG 0.22  C 
ATOM     41 O    ALA E  14       0.092  22.891   7.899  1.00120.33 LIG-0.29  OA
ENDBRANCH 38 40
ENDBRANCH 35 38
ENDBRANCH 32 34
ENDBRANCH 29 32
ENDBRANCH 26 28
ENDBRANCH 23 26
ENDBRANCH 1 22
TORSDOF 13
ENDMDL
MODEL 2
USER: ADFR SOLUTION from run 67
USER: SCORE 6.552393 LL:  -2.503 LR:  -5.320 RR:   0.000 FEB:  -1.442
USER: RMSD 5.927602
USER: SEED 66
USER: STATUS searching
USER: GENES 15
USER: genes 0 Translation |==|  0.66240 0.35702 0.60485
USER: genes 1 Rotation |==|  0.80688 0.64579 0.58520 0.85681
USER: genes 2 Torsion [CB]-CA--N-[C] |==|  0.13422
USER: genes 3 Torsion [N]-C--CA-[N] |==|  0.05025
USER: genes 4 Torsion [C]-CA--N-[C] |==|  0.63404
USER: genes 5 Torsion [N]-C--CA-[N] |==|  0.51633
USER: genes 6 Torsion [C]-CA--N-[C] |==|  0.77301
USER: genes 7 Torsion [N]-C--CA-[N] |==|  0.31906
USER: genes 8 Torsion [N]-CA--C-[N] |==|  0.10758
USER: genes 9 Torsion [C]-N--CA-[CB] |==|  0.84044
USER: genes 10 Torsion [N]-CA--C-[N] |==|  0.39244
USER: genes 11 Torsion [C]-N--CA-[CB] |==|  0.52331
USER: genes 12 Torsion [N]-CA--C-[N] |==|  0.42965
USER: genes 13 Torsion [C]-N--CA-[C] |==|  0.16767
USER: genes 14 Torsion [N]-CA--C-[O] |==|  0.10195
ROOT
ATOM      1  CA  ALA E  11       2.434  21.055   3.081  1.00 85.35 LIG 0.17  C 
ATOM      2  CB  ALA E  11       2.525  19.729   3.838  1.00 80.46 LIG 0.04  C 
ENDROOT
BRANCH 1 3
ATOM      3  N   ALA E  11       3.036  22.125   3.870  1.00 87.15 LIG-0.35  N 
ATOM      4  C   ALA E  10       4.240  21.961   4.423  1.00 62.15 LIG 0.24  C 
ATOM      5 O    ALA E  10       4.974  21.014   4.136  1.00 65.72 LIG-0.27  OA
ATOM      6 H    ALA E  11       2.559  22.838   3.940  1.00 87.15 LIG 0.16  HD
BRANCH 4 7
ATOM      7  CA  ALA E  10       4.696  23.002   5.439  1.00 66.45 LIG 0.17  C 
ATOM      8  CB  ALA E  10       5.436  22.329   6.594  1.00 58.63 LIG 0.04  C 
BRANCH 7 9
ATOM      9  N   ALA E  10       3.582  23.782   5.956  1.00 75.43 LIG-0.35  N 
ATOM     10  C   ALA E   9       3.598  25.112   6.028  1.00 82.21 LIG 0.24  C 
ATOM     11 O    ALA E   9       4.569  25.800   5.695  1.00 73.75 LIG-0.27  OA
ATOM     12 H    ALA E  10       2.913  23.305   6.211  1.00 75.43 LIG 0.16  HD
BRANCH 10 13
ATOM     13  CA  ALA E   9       2.341  25.768   6.583  1.00 87.65 LIG 0.17  C 
ATOM     14  CB  ALA E   9       1.095  25.269   5.854  1.00 72.21 LIG 0.04  C 
BRANCH 13 15
ATOM     15  N   ALA E   9       2.494  27.211   6.452  1.00 84.24 LIG-0.35  N 
ATOM     16 H    ALA E   9       2.102  27.545   5.762  1.00 84.24 LIG 0.16  HD
ATOM     17  C   ALA E   8       3.179  27.933   7.327  1.00 61.40 LIG 0.26  C 
ATOM     18 O    ALA E   8       3.653  27.456   8.356  1.00 66.21 LIG-0.27  OA
BRANCH 17 19
ATOM     19  CA  ALA E   8       3.329  29.418   7.008  1.00 67.03 LIG 0.40  C 
ATOM     20  N   ALA E   8       2.622  30.249   8.028  1.00 60.26 LIG 0.61  N 
ATOM     21  CB  ALA E   8       4.801  29.806   6.935  1.00 64.64 LIG 0.06  C 
ENDBRANCH 17 19
ENDBRANCH 13 15
ENDBRANCH 10 13
ENDBRANCH 7 9
ENDBRANCH 4 7
ENDBRANCH 1 3
BRANCH 1 22
ATOM     22  C   ALA E  11       0.983  21.366   2.733  1.00 81.78 LIG 0.24  C 
ATOM     23  N   ALA E  12       0.681  22.626   2.425  1.00 82.91 LIG-0.35  N 
ATOM     24 H    ALA E  12       1.259  23.251   2.300  1.00 82.91 LIG 0.16  HD
ATOM     25 O    ALA E  11       0.126  20.474   2.754  1.00 89.30 LIG-0.27  OA
BRANCH 23 26
ATOM     26  CA  ALA E  12      -0.710  23.031   2.274  1.00 61.10 LIG 0.17  C 
ATOM     27  CB  ALA E  12      -1.411  22.183   1.201  1.00 65.27 LIG 0.04  C 
BRANCH 26 28
ATOM     28  C   ALA E  12      -1.443  22.921   3.601  1.00 54.59 LIG 0.24  C 
ATOM     29  N   ALA E  13      -2.315  23.900   3.840  1.00 64.78 LIG-0.35  N 
ATOM     30 H    ALA E  13      -2.508  24.517   3.273  1.00 64.78 LIG 0.16  HD
ATOM     31 O    ALA E  12      -1.257  21.968   4.363  1.00 69.11 LIG-0.27  OA
BRANCH 29 32
ATOM     32  CA  ALA E  13      -3.027  24.009   5.104  1.00 54.23 LIG 0.17  C 
ATOM     33  CB  ALA E  13      -4.099  25.095   5.008  1.00 56.27 LIG 0.04  C 
BRANCH 32 34
ATOM     34  C   ALA E  13      -3.699  22.708   5.503  1.00 65.29 LIG 0.24  C 
ATOM     35  N   ALA E  14      -3.902  22.551   6.806  1.00 85.74 LIG-0.35  N 
ATOM     36 H    ALA E  14      -3.643  23.118   7.398  1.00 85.74 LIG 0.16  HD
ATOM     37 O    ALA E  13      -4.079  21.896   4.656  1.00 75.52 LIG-0.27  OA
BRANCH 35 38
ATOM     38  CA  ALA E  14      -4.586  21.395   7.357  1.00 94.46 LIG 0.16  C 
ATOM     39  CB  ALA E  14      -6.006  21.336   6.842  1.00106.12 LIG 0.04  C 
BRANCH 38 40
ATOM     40  C   ALA E  14      -3.835  20.116   7.004  1.00 99.07 LIG 0.22  C 
ATOM     41 O    ALA E  14      -2.604  20.096   6.972  1.00120.33 LIG-0.29  OA
ENDBRANCH 38 40
ENDBRANCH 35 38
ENDBRANCH 32 34
ENDBRANCH 29 32
ENDBRANCH 26 28
ENDBRANCH 23 26
ENDBRANCH 1 22
TORSDOF 13
ENDMDL
MODEL 3
USER: ADFR SOLUTION from run 19
USER: SCORE 6.628123 LL:  -2.343 LR:  -5.238 RR:   0.000 FEB:  -1.360
USER: RMSD 6.415738
USER: SEED 18
USER: STATUS no improvement in best in 53 clusters for 5 generations
USER: GENES 15
USER: genes 0 Translation |==|  0.59143 0.22906 0.59775
USER: genes 1 Rotation |==|  0.75050 0.76373 0.58426 0.83256
USER: genes 2 Torsion [CB]-CA--N-[C] |==|  0.17702
USER: genes 3 Torsion [N]-C--CA-[N] |==|  0.40543
USER: genes 4 Torsion [C]-CA--N-[C] |==|  0.65536
USER: genes 5 Torsion [N]-C--CA-[N] |==|  0.15752
USER: genes 6 Torsion [C]-CA--N-[C] |==|  0.78209
USER: genes 7 Torsion [N]-C--CA-[N] |==|  0.30309
USER: genes 8 Torsion [N]-CA--C-[N] |==|  0.11508
USER: genes 9 Torsion [C]-N--CA-[CB] |==|  0.85896
USER: genes 10 Torsion [N]-CA--C-[N] |==|  0.36678
USER: genes 11 Torsion [C]-N--CA-[CB] |==|  0.84740
USER: genes 12 Torsion [N]-CA--C-[N] |==|  0.39409
USER: genes 13 Torsion [C]-N--CA-[C] |==|  0.16729
USER: genes 14 Torsion [N]-CA--C-[O] |==|  0.10363
ROOT
ATOM      1  CA  ALA E  11       0.837  18.752   2.954  1.00 85.35 LIG 0.17  C 
ATOM      2  CB  ALA E  11       1.644  17.747   3.778  1.00 80.46 LIG 0.04  C 
ENDROOT
BRANCH 1 3
ATOM      3  N   ALA E  11       1.176  20.114   3.352  1.00 87.15 LIG-0.35  N 
ATOM      4  C   ALA E  10       2.413  20.583   3.170  1.00 62.15 LIG 0.24  C 
ATOM      5 O    ALA E  10       3.251  19.987   2.492  1.00 65.72 LIG-0.27  OA
ATOM      6 H    ALA E  11       0.529  20.563   3.698  1.00 87.15 LIG 0.16  HD
BRANCH 4 7
ATOM      7  CA  ALA E  10       2.769  21.908   3.837  1.00 66.45 LIG 0.17  C 
ATOM      8  CB  ALA E  10       2.488  23.071   2.887  1.00 58.63 LIG 0.04  C 
BRANCH 7 9
ATOM      9  N   ALA E  10       4.159  21.945   4.265  1.00 75.43 LIG-0.35  N 
ATOM     10  C   ALA E   9       4.525  22.196   5.520  1.00 82.21 LIG 0.24  C 
ATOM     11 O    ALA E   9       3.723  22.451   6.425  1.00 73.75 LIG-0.27  OA
ATOM     12 H    ALA E  10       4.721  21.792   3.632  1.00 75.43 LIG 0.16  HD
BRANCH 10 13
ATOM     13  CA  ALA E   9       6.022  22.183   5.796  1.00 87.65 LIG 0.17  C 
ATOM     14  CB  ALA E   9       6.313  22.504   7.260  1.00 72.21 LIG 0.04  C 
BRANCH 13 15
ATOM     15  N   ALA E   9       6.650  23.150   4.904  1.00 84.24 LIG-0.35  N 
ATOM     16 H    ALA E   9       6.849  23.898   5.280  1.00 84.24 LIG 0.16  HD
ATOM     17  C   ALA E   8       6.888  22.885   3.627  1.00 61.40 LIG 0.26  C 
ATOM     18 O    ALA E   8       6.684  21.780   3.129  1.00 66.21 LIG-0.27  OA
BRANCH 17 19
ATOM     19  CA  ALA E   8       7.466  24.026   2.796  1.00 67.03 LIG 0.40  C 
ATOM     20  N   ALA E   8       8.894  23.754   2.449  1.00 60.26 LIG 0.61  N 
ATOM     21  CB  ALA E   8       6.644  24.240   1.530  1.00 64.64 LIG 0.06  C 
ENDBRANCH 17 19
ENDBRANCH 13 15
ENDBRANCH 10 13
ENDBRANCH 7 9
ENDBRANCH 4 7
ENDBRANCH 1 3
BRANCH 1 22
ATOM     22  C   ALA E  11      -0.655  18.481   3.104  1.00 81.78 LIG 0.24  C 
ATOM     23  N   ALA E  12      -1.495  19.442   2.725  1.00 82.91 LIG-0.35  N 
ATOM     24 H    ALA E  12      -1.265  20.155   2.302  1.00 82.91 LIG 0.16  HD
ATOM     25 O    ALA E  11      -1.056  17.409   3.573  1.00 89.30 LIG-0.27  OA
BRANCH 23 26
ATOM     26  CA  ALA E  12      -2.917  19.330   3.020  1.00 61.10 LIG 0.17  C 
ATOM     27  CB  ALA E  12      -3.462  17.968   2.567  1.00 65.27 LIG 0.04  C 
BRANCH 26 28
ATOM     28  C   ALA E  12      -3.172  19.538   4.504  1.00 54.59 LIG 0.24  C 
ATOM     29  N   ALA E  13      -4.158  20.388   4.789  1.00 64.78 LIG-0.35  N 
ATOM     30 H    ALA E  13      -4.663  20.750   4.194  1.00 64.78 LIG 0.16  HD
ATOM     31 O    ALA E  12      -2.528  18.924   5.359  1.00 69.11 LIG-0.27  OA
BRANCH 29 32
ATOM     32  CA  ALA E  13      -4.467  20.782   6.154  1.00 54.23 LIG 0.17  C 
ATOM     33  CB  ALA E  13      -4.719  19.542   7.011  1.00 56.27 LIG 0.04  C 
BRANCH 32 34
ATOM     34  C   ALA E  13      -3.348  21.585   6.792  1.00 65.29 LIG 0.24  C 
ATOM     35  N   ALA E  14      -3.741  22.583   7.576  1.00 85.74 LIG-0.35  N 
ATOM     36 H    ALA E  14      -4.566  22.796   7.694  1.00 85.74 LIG 0.16  HD
ATOM     37 O    ALA E  13      -2.164  21.277   6.632  1.00 75.52 LIG-0.27  OA
BRANCH 35 38
ATOM     38  CA  ALA E  14      -2.806  23.414   8.313  1.00 94.46 LIG 0.16  C 
ATOM     39  CB  ALA E  14      -2.029  22.572   9.300  1.00106.12 LIG 0.04  C 
BRANCH 38 40
ATOM     40  C   ALA E  14      -1.859  24.125   7.353  1.00 99.07 LIG 0.22  C 
ATOM     41 O    ALA E  14      -2.260  24.543   6.267  1.00120.33 LIG-0.29  OA
ENDBRANCH 38 40
ENDBRANCH 35 38
ENDBRANCH 32 34
ENDBRANCH 29 32
ENDBRANCH 26 28
ENDBRANCH 23 26
ENDBRANCH 1 22
TORSDOF 13
ENDMDL
MODEL 4
USER: ADFR SOLUTION from run 117
USER: SCORE 6.564627 LL:  -2.748 LR:  -4.965 RR:   0.000 FEB:  -1.087
USER: RMSD 5.588535
USER: SEED 116
USER: STATUS searching
USER: GENES 15
USER: genes 0 Translation |==|  0.59029 0.27840 0.57640
USER: genes 1 Rotation |==|  0.71004 0.72123 0.56072 0.89148
USER: genes 2 Torsion [CB]-CA--N-[C] |==|  0.14611
USER: genes 3 Torsion [N]-C--CA-[N] |==|  0.47770
USER: genes 4 Torsion [C]-CA--N-[C] |==|  0.80256
USER: genes 5 Torsion [N]-C--CA-[N] |==|  0.45730
USER: genes 6 Torsion [C]-CA--N-[C] |==|  0.83246
USER: genes 7 Torsion [N]-C--CA-[N] |==|  0.04541
USER: genes 8 Torsion [N]-CA--C-[N] |==|  0.13408
USER: genes 9 Torsion [C]-N--CA-[CB] |==|  0.86654
USER: genes 10 Torsion [N]-CA--C-[N] |==|  0.32580
USER: genes 11 Torsion [C]-N--CA-[CB] |==|  0.78842
USER: genes 12 Torsion [N]-CA--C-[N] |==|  0.17313
USER: genes 13 Torsion [C]-N--CA-[C] |==|  0.16584
USER: genes 14 Torsion [N]-CA--C-[O] |==|  0.10336
ROOT
ATOM      1  CA  ALA E  11       0.812  19.640   2.569  1.00 85.35 LIG 0.17  C 
ATOM      2  CB  ALA E  11       1.300  18.821   3.765  1.00 80.46 LIG 0.04  C 
ENDROOT
BRANCH 1 3
ATOM      3  N   ALA E  11       1.234  21.030   2.707  1.00 87.15 LIG-0.35  N 
ATOM      4  C   ALA E  10       2.517  21.327   2.929  1.00 62.15 LIG 0.24  C 
ATOM      5 O    ALA E  10       3.414  20.490   2.827  1.00 65.72 LIG-0.27  OA
ATOM      6 H    ALA E  11       0.604  21.611   2.633  1.00 87.15 LIG 0.16  HD
BRANCH 4 7
ATOM      7  CA  ALA E  10       2.849  22.763   3.319  1.00 66.45 LIG 0.17  C 
ATOM      8  CB  ALA E  10       2.535  23.713   2.164  1.00 58.63 LIG 0.04  C 
BRANCH 7 9
ATOM      9  N   ALA E  10       4.242  22.912   3.713  1.00 75.43 LIG-0.35  N 
ATOM     10  C   ALA E   9       4.730  22.422   4.851  1.00 82.21 LIG 0.24  C 
ATOM     11 O    ALA E   9       4.040  21.829   5.688  1.00 73.75 LIG-0.27  OA
ATOM     12 H    ALA E  10       4.720  23.345   3.144  1.00 75.43 LIG 0.16  HD
BRANCH 10 13
ATOM     13  CA  ALA E   9       6.214  22.657   5.099  1.00 87.65 LIG 0.17  C 
ATOM     14  CB  ALA E   9       7.068  21.771   4.195  1.00 72.21 LIG 0.04  C 
BRANCH 13 15
ATOM     15  N   ALA E   9       6.479  22.394   6.508  1.00 84.24 LIG-0.35  N 
ATOM     16 H    ALA E   9       7.047  21.762   6.647  1.00 84.24 LIG 0.16  HD
ATOM     17  C   ALA E   8       5.890  23.077   7.479  1.00 61.40 LIG 0.26  C 
ATOM     18 O    ALA E   8       5.154  24.038   7.264  1.00 66.21 LIG-0.27  OA
BRANCH 17 19
ATOM     19  CA  ALA E   8       6.198  22.628   8.904  1.00 67.03 LIG 0.40  C 
ATOM     20  N   ALA E   8       7.409  21.754   8.931  1.00 60.26 LIG 0.61  N 
ATOM     21  CB  ALA E   8       6.392  23.833   9.818  1.00 64.64 LIG 0.06  C 
ENDBRANCH 17 19
ENDBRANCH 13 15
ENDBRANCH 10 13
ENDBRANCH 7 9
ENDBRANCH 4 7
ENDBRANCH 1 3
BRANCH 1 22
ATOM     22  C   ALA E  11      -0.702  19.527   2.436  1.00 81.78 LIG 0.24  C 
ATOM     23  N   ALA E  12      -1.303  20.328   1.558  1.00 82.91 LIG-0.35  N 
ATOM     24 H    ALA E  12      -0.894  20.823   0.986  1.00 82.91 LIG 0.16  HD
ATOM     25 O    ALA E  11      -1.337  18.726   3.131  1.00 89.30 LIG-0.27  OA
BRANCH 23 26
ATOM     26  CA  ALA E  12      -2.757  20.412   1.518  1.00 61.10 LIG 0.17  C 
ATOM     27  CB  ALA E  12      -3.384  19.010   1.510  1.00 65.27 LIG 0.04  C 
BRANCH 26 28
ATOM     28  C   ALA E  12      -3.277  21.220   2.696  1.00 54.59 LIG 0.24  C 
ATOM     29  N   ALA E  13      -3.920  22.340   2.365  1.00 64.78 LIG-0.35  N 
ATOM     30 H    ALA E  13      -4.093  22.570   1.555  1.00 64.78 LIG 0.16  HD
ATOM     31 O    ALA E  12      -3.135  20.828   3.858  1.00 69.11 LIG-0.27  OA
BRANCH 29 32
ATOM     32  CA  ALA E  13      -4.391  23.283   3.367  1.00 54.23 LIG 0.17  C 
ATOM     33  CB  ALA E  13      -5.651  22.742   4.042  1.00 56.27 LIG 0.04  C 
BRANCH 32 34
ATOM     34  C   ALA E  13      -3.353  23.555   4.440  1.00 65.29 LIG 0.24  C 
ATOM     35  N   ALA E  14      -2.225  24.111   4.011  1.00 85.74 LIG-0.35  N 
ATOM     36 H    ALA E  14      -2.064  24.278   3.184  1.00 85.74 LIG 0.16  HD
ATOM     37 O    ALA E  13      -3.584  23.325   5.630  1.00 75.52 LIG-0.27  OA
BRANCH 35 38
ATOM     38  CA  ALA E  14      -1.151  24.494   4.910  1.00 94.46 LIG 0.16  C 
ATOM     39  CB  ALA E  14      -1.630  25.559   5.870  1.00106.12 LIG 0.04  C 
BRANCH 38 40
ATOM     40  C   ALA E  14      -0.640  23.277   5.672  1.00 99.07 LIG 0.22  C 
ATOM     41 O    ALA E  14      -0.562  22.177   5.125  1.00120.33 LIG-0.29  OA
ENDBRANCH 38 40
ENDBRANCH 35 38
ENDBRANCH 32 34
ENDBRANCH 29 32
ENDBRANCH 26 28
ENDBRANCH 23 26
ENDBRANCH 1 22
TORSDOF 13
ENDMDL
MODEL 5
USER: ADFR SOLUTION from run 12
USER: SCORE 4.838321 LL:  -2.199 LR:  -4.711 RR:   0.000 FEB:  -0.833
USER: RMSD 4.478790
USER: SEED 937734
USER: STATUS no improvement in best in 32 clusters for 5 generations
USER: GENES 15
USER: genes 0 Translation |==|  0.58775 0.26848 0.57138
USER: genes 1 Rotation |==|  0.67975 0.59129 0.59590 0.94739
USER: genes 2 Torsion [CB]-CA--N-[C] |==|  0.21271
USER: genes 3 Torsion [N]-C--CA-[N] |==|  0.52222
USER: genes 4 Torsion [C]-CA--N-[C] |==|  0.74203
USER: genes 5 Torsion [N]-C--CA-[N] |==|  0.49103
USER: genes 6 Torsion [C]-CA--N-[C] |==|  0.82938
USER: genes 7 Torsion [N]-C--CA-[N] |==|  0.03355
USER: genes 8 Torsion [N]-CA--C-[N] |==|  0.07538
USER: genes 9 Torsion [C]-N--CA-[CB] |==|  0.17575
USER: genes 10 Torsion [N]-CA--C-[N] |==|  0.56723
USER: genes 11 Torsion [C]-N--CA-[CB] |==|  0.84444
USER: genes 12 Torsion [N]-CA--C-[N] |==|  0.39374
USER: genes 13 Torsion [C]-N--CA-[C] |==|  0.77057
USER: genes 14 Torsion [N]-CA--C-[O] |==|  0.97823
ROOT
ATOM      1  CA  ALA E  11       0.754  19.462   2.479  1.00 85.35 LIG 0.17  C 
ATOM      2  CB  ALA E  11       0.421  18.718   3.774  1.00 80.46 LIG 0.04  C 
ENDROOT
BRANCH 1 3
ATOM      3  N   ALA E  11       1.163  20.830   2.777  1.00 87.15 LIG-0.35  N 
ATOM      4  C   ALA E  10       2.383  21.082   3.258  1.00 62.15 LIG 0.24  C 
ATOM      5 O    ALA E  10       3.271  20.229   3.279  1.00 65.72 LIG-0.27  OA
ATOM      6 H    ALA E  11       0.567  21.430   2.619  1.00 87.15 LIG 0.16  HD
BRANCH 4 7
ATOM      7  CA  ALA E  10       2.655  22.485   3.788  1.00 66.45 LIG 0.17  C 
ATOM      8  CB  ALA E  10       2.203  23.533   2.772  1.00 58.63 LIG 0.04  C 
BRANCH 7 9
ATOM      9  N   ALA E  10       4.061  22.683   4.106  1.00 75.43 LIG-0.35  N 
ATOM     10  C   ALA E   9       4.565  22.478   5.321  1.00 82.21 LIG 0.24  C 
ATOM     11 O    ALA E   9       3.883  22.134   6.293  1.00 73.75 LIG-0.27  OA
ATOM     12 H    ALA E  10       4.535  22.945   3.438  1.00 75.43 LIG 0.16  HD
BRANCH 10 13
ATOM     13  CA  ALA E   9       6.061  22.720   5.475  1.00 87.65 LIG 0.17  C 
ATOM     14  CB  ALA E   9       6.863  21.793   4.565  1.00 72.21 LIG 0.04  C 
BRANCH 13 15
ATOM     15  N   ALA E   9       6.405  22.520   6.877  1.00 84.24 LIG-0.35  N 
ATOM     16 H    ALA E   9       6.968  21.884   7.014  1.00 84.24 LIG 0.16  HD
ATOM     17  C   ALA E   8       5.887  23.262   7.847  1.00 61.40 LIG 0.26  C 
ATOM     18 O    ALA E   8       5.158  24.227   7.627  1.00 66.21 LIG-0.27  OA
BRANCH 17 19
ATOM     19  CA  ALA E   8       6.271  22.876   9.272  1.00 67.03 LIG 0.40  C 
ATOM     20  N   ALA E   8       7.400  21.898   9.266  1.00 60.26 LIG 0.61  N 
ATOM     21  CB  ALA E   8       6.644  24.113  10.082  1.00 64.64 LIG 0.06  C 
ENDBRANCH 17 19
ENDBRANCH 13 15
ENDBRANCH 10 13
ENDBRANCH 7 9
ENDBRANCH 4 7
ENDBRANCH 1 3
BRANCH 1 22
ATOM     22  C   ALA E  11      -0.437  19.428   1.530  1.00 81.78 LIG 0.24  C 
ATOM     23  N   ALA E  12      -0.590  20.457   0.698  1.00 82.91 LIG-0.35  N 
ATOM     24 H    ALA E  12      -0.010  21.082   0.580  1.00 82.91 LIG 0.16  HD
ATOM     25 O    ALA E  11      -1.232  18.481   1.550  1.00 89.30 LIG-0.27  OA
BRANCH 23 26
ATOM     26  CA  ALA E  12      -1.805  20.585  -0.095  1.00 61.10 LIG 0.17  C 
ATOM     27  CB  ALA E  12      -3.030  20.770   0.813  1.00 65.27 LIG 0.04  C 
BRANCH 26 28
ATOM     28  C   ALA E  12      -1.686  21.746  -1.069  1.00 54.59 LIG 0.24  C 
ATOM     29  N   ALA E  13      -2.849  22.267  -1.462  1.00 64.78 LIG-0.35  N 
ATOM     30 H    ALA E  13      -3.612  22.021  -1.151  1.00 64.78 LIG 0.16  HD
ATOM     31 O    ALA E  12      -0.586  22.179  -1.423  1.00 69.11 LIG-0.27  OA
BRANCH 29 32
ATOM     32  CA  ALA E  13      -2.924  23.312  -2.470  1.00 54.23 LIG 0.17  C 
ATOM     33  CB  ALA E  13      -2.069  24.507  -2.048  1.00 56.27 LIG 0.04  C 
BRANCH 32 34
ATOM     34  C   ALA E  13      -2.447  22.840  -3.831  1.00 65.29 LIG 0.24  C 
ATOM     35  N   ALA E  14      -3.136  23.305  -4.867  1.00 85.74 LIG-0.35  N 
ATOM     36 H    ALA E  14      -3.828  23.808  -4.788  1.00 85.74 LIG 0.16  HD
ATOM     37 O    ALA E  13      -1.448  22.125  -3.949  1.00 75.52 LIG-0.27  OA
BRANCH 35 38
ATOM     38  CA  ALA E  14      -2.780  23.004  -6.242  1.00 94.46 LIG 0.16  C 
ATOM     39  CB  ALA E  14      -3.997  23.118  -7.131  1.00106.12 LIG 0.04  C 
BRANCH 38 40
ATOM     40  C   ALA E  14      -1.677  23.942  -6.721  1.00 99.07 LIG 0.22  C 
ATOM     41 O    ALA E  14      -1.314  24.893  -6.029  1.00120.33 LIG-0.29  OA
ENDBRANCH 38 40
ENDBRANCH 35 38
ENDBRANCH 32 34
ENDBRANCH 29 32
ENDBRANCH 26 28
ENDBRANCH 23 26
ENDBRANCH 1 22
TORSDOF 13
ENDMDL
MODEL 6
USER: ADFR SOLUTION from run 91
USER: SCORE 5.249547 LL:  -2.417 LR:  -4.699 RR:   0.000 FEB:  -0.821
USER: RMSD 4.918628
USER: SEED 90
USER: STATUS no improvement in best in 77 clusters for 5 generations
USER: GENES 15
USER: genes 0 Translation |==|  0.63205 0.35520 0.60386
USER: genes 1 Rotation |==|  0.81819 0.66648 0.56309 0.84214
USER: genes 2 Torsion [CB]-CA--N-[C] |==|  0.14567
USER: genes 3 Torsion [N]-C--CA-[N] |==|  0.02644
USER: genes 4 Torsion [C]-CA--N-[C] |==|  0.57778
USER: genes 5 Torsion [N]-C--CA-[N] |==|  0.46676
USER: genes 6 Torsion [C]-CA--N-[C] |==|  0.55525
USER: genes 7 Torsion [N]-C--CA-[N] |==|  0.47836
USER: genes 8 Torsion [N]-CA--C-[N] |==|  0.58787
USER: genes 9 Torsion [C]-N--CA-[CB] |==|  0.51835
USER: genes 10 Torsion [N]-CA--C-[N] |==|  0.40773
USER: genes 11 Torsion [C]-N--CA-[CB] |==|  0.83229
USER: genes 12 Torsion [N]-CA--C-[N] |==|  0.37960
USER: genes 13 Torsion [C]-N--CA-[C] |==|  0.61276
USER: genes 14 Torsion [N]-CA--C-[O] |==|  0.97290
ROOT
ATOM      1  CA  ALA E  11       1.751  21.023   3.063  1.00 85.35 LIG 0.17  C 
ATOM      2  CB  ALA E  11       1.922  19.673   3.764  1.00 80.46 LIG 0.04  C 
ENDROOT
BRANCH 1 3
ATOM      3  N   ALA E  11       2.474  22.060   3.790  1.00 87.15 LIG-0.35  N 
ATOM      4  C   ALA E  10       3.764  21.898   4.095  1.00 62.15 LIG 0.24  C 
ATOM      5 O    ALA E  10       4.445  20.990   3.616  1.00 65.72 LIG-0.27  OA
ATOM      6 H    ALA E  11       2.008  22.754   3.993  1.00 87.15 LIG 0.16  HD
BRANCH 4 7
ATOM      7  CA  ALA E  10       4.388  22.890   5.071  1.00 66.45 LIG 0.17  C 
ATOM      8  CB  ALA E  10       5.175  22.149   6.150  1.00 58.63 LIG 0.04  C 
BRANCH 7 9
ATOM      9  N   ALA E  10       3.387  23.746   5.690  1.00 75.43 LIG-0.35  N 
ATOM     10  C   ALA E   9       3.652  24.977   6.121  1.00 82.21 LIG 0.24  C 
ATOM     11 O    ALA E   9       4.775  25.491   6.065  1.00 73.75 LIG-0.27  OA
ATOM     12 H    ALA E  10       2.610  23.382   5.753  1.00 75.43 LIG 0.16  HD
BRANCH 10 13
ATOM     13  CA  ALA E   9       2.484  25.739   6.732  1.00 87.65 LIG 0.17  C 
ATOM     14  CB  ALA E   9       1.454  26.110   5.667  1.00 72.21 LIG 0.04  C 
BRANCH 13 15
ATOM     15  N   ALA E   9       3.018  26.923   7.393  1.00 84.24 LIG-0.35  N 
ATOM     16 H    ALA E   9       3.801  27.153   7.123  1.00 84.24 LIG 0.16  HD
ATOM     17  C   ALA E   8       2.342  27.577   8.328  1.00 61.40 LIG 0.26  C 
ATOM     18 O    ALA E   8       1.187  27.292   8.635  1.00 66.21 LIG-0.27  OA
BRANCH 17 19
ATOM     19  CA  ALA E   8       3.066  28.743   8.994  1.00 67.03 LIG 0.40  C 
ATOM     20  N   ALA E   8       2.136  29.503   9.882  1.00 60.26 LIG 0.61  N 
ATOM     21  CB  ALA E   8       4.270  28.246   9.786  1.00 64.64 LIG 0.06  C 
ENDBRANCH 17 19
ENDBRANCH 13 15
ENDBRANCH 10 13
ENDBRANCH 7 9
ENDBRANCH 4 7
ENDBRANCH 1 3
BRANCH 1 22
ATOM     22  C   ALA E  11       0.272  21.363   2.928  1.00 81.78 LIG 0.24  C 
ATOM     23  N   ALA E  12      -0.592  20.350   2.903  1.00 82.91 LIG-0.35  N 
ATOM     24 H    ALA E  12      -0.390  19.530   3.068  1.00 82.91 LIG 0.16  HD
ATOM     25 O    ALA E  11      -0.097  22.540   2.833  1.00 89.30 LIG-0.27  OA
BRANCH 23 26
ATOM     26  CA  ALA E  12      -1.992  20.589   2.581  1.00 61.10 LIG 0.17  C 
ATOM     27  CB  ALA E  12      -2.822  19.310   2.774  1.00 65.27 LIG 0.04  C 
BRANCH 26 28
ATOM     28  C   ALA E  12      -2.550  21.717   3.433  1.00 54.59 LIG 0.24  C 
ATOM     29  N   ALA E  13      -3.475  22.467   2.832  1.00 64.78 LIG-0.35  N 
ATOM     30 H    ALA E  13      -3.789  22.300   2.049  1.00 64.78 LIG 0.16  HD
ATOM     31 O    ALA E  12      -2.188  21.882   4.601  1.00 69.11 LIG-0.27  OA
BRANCH 29 32
ATOM     32  CA  ALA E  13      -4.038  23.650   3.462  1.00 54.23 LIG 0.17  C 
ATOM     33  CB  ALA E  13      -4.732  23.265   4.770  1.00 56.27 LIG 0.04  C 
BRANCH 32 34
ATOM     34  C   ALA E  13      -2.985  24.698   3.771  1.00 65.29 LIG 0.24  C 
ATOM     35  N   ALA E  14      -3.327  25.948   3.481  1.00 85.74 LIG-0.35  N 
ATOM     36 H    ALA E  14      -4.072  26.162   3.109  1.00 85.74 LIG 0.16  HD
ATOM     37 O    ALA E  13      -1.918  24.396   4.312  1.00 75.52 LIG-0.27  OA
BRANCH 35 38
ATOM     38  CA  ALA E  14      -2.465  27.081   3.767  1.00 94.46 LIG 0.16  C 
ATOM     39  CB  ALA E  14      -1.703  27.482   2.524  1.00106.12 LIG 0.04  C 
BRANCH 38 40
ATOM     40  C   ALA E  14      -3.287  28.253   4.291  1.00 99.07 LIG 0.22  C 
ATOM     41 O    ALA E  14      -4.517  28.227   4.255  1.00120.33 LIG-0.29  OA
ENDBRANCH 38 40
ENDBRANCH 35 38
ENDBRANCH 32 34
ENDBRANCH 29 32
ENDBRANCH 26 28
ENDBRANCH 23 26
ENDBRANCH 1 22
TORSDOF 13
ENDMDL
MODEL 7
USER: ADFR SOLUTION from run 185
USER: SCORE 5.199364 LL:  -2.412 LR:  -4.680 RR:   0.000 FEB:  -0.802
USER: RMSD 5.901729
USER: SEED 184
USER: STATUS no improvement in best in 26 clusters for 5 generations
USER: GENES 15
USER: genes 0 Translation |==|  0.60812 0.25558 0.58297
USER: genes 1 Rotation |==|  0.70905 0.76119 0.58118 0.86261
USER: genes 2 Torsion [CB]-CA--N-[C] |==|  0.16639
USER: genes 3 Torsion [N]-C--CA-[N] |==|  0.42932
USER: genes 4 Torsion [C]-CA--N-[C] |==|  0.78916
USER: genes 5 Torsion [N]-C--CA-[N] |==|  0.46256
USER: genes 6 Torsion [C]-CA--N-[C] |==|  0.82177
USER: genes 7 Torsion [N]-C--CA-[N] |==|  0.04834
USER: genes 8 Torsion [N]-CA--C-[N] |==|  0.86471
USER: genes 9 Torsion [C]-N--CA-[CB] |==|  0.15556
USER: genes 10 Torsion [N]-CA--C-[N] |==|  0.12341
USER: genes 11 Torsion [C]-N--CA-[CB] |==|  0.19854
USER: genes 12 Torsion [N]-CA--C-[N] |==|  0.09365
USER: genes 13 Torsion [C]-N--CA-[C] |==|  0.77290
USER: genes 14 Torsion [N]-CA--C-[O] |==|  0.93871
ROOT
ATOM      1  CA  ALA E  11       1.213  19.230   2.687  1.00 85.35 LIG 0.17  C 
ATOM      2  CB  ALA E  11       1.981  18.433   3.744  1.00 80.46 LIG 0.04  C 
ENDROOT
BRANCH 1 3
ATOM      3  N   ALA E  11       1.449  20.658   2.866  1.00 87.15 LIG-0.35  N 
ATOM      4  C   ALA E  10       2.687  21.153   2.788  1.00 62.15 LIG 0.24  C 
ATOM      5 O    ALA E  10       3.637  20.489   2.370  1.00 65.72 LIG-0.27  OA
ATOM      6 H    ALA E  11       0.745  21.127   3.019  1.00 87.15 LIG 0.16  HD
BRANCH 4 7
ATOM      7  CA  ALA E  10       2.899  22.594   3.237  1.00 66.45 LIG 0.17  C 
ATOM      8  CB  ALA E  10       2.536  23.560   2.110  1.00 58.63 LIG 0.04  C 
BRANCH 7 9
ATOM      9  N   ALA E  10       4.267  22.835   3.669  1.00 75.43 LIG-0.35  N 
ATOM     10  C   ALA E   9       4.740  22.420   4.843  1.00 82.21 LIG 0.24  C 
ATOM     11 O    ALA E   9       4.055  21.826   5.682  1.00 73.75 LIG-0.27  OA
ATOM     12 H    ALA E  10       4.741  23.269   3.097  1.00 75.43 LIG 0.16  HD
BRANCH 10 13
ATOM     13  CA  ALA E   9       6.200  22.746   5.128  1.00 87.65 LIG 0.17  C 
ATOM     14  CB  ALA E   9       7.130  21.903   4.258  1.00 72.21 LIG 0.04  C 
BRANCH 13 15
ATOM     15  N   ALA E   9       6.442  22.513   6.547  1.00 84.24 LIG-0.35  N 
ATOM     16 H    ALA E   9       7.003  21.882   6.709  1.00 84.24 LIG 0.16  HD
ATOM     17  C   ALA E   8       5.841  23.221   7.493  1.00 61.40 LIG 0.26  C 
ATOM     18 O    ALA E   8       5.115  24.181   7.244  1.00 66.21 LIG-0.27  OA
BRANCH 17 19
ATOM     19  CA  ALA E   8       6.124  22.803   8.933  1.00 67.03 LIG 0.40  C 
ATOM     20  N   ALA E   8       7.344  21.944   9.002  1.00 60.26 LIG 0.61  N 
ATOM     21  CB  ALA E   8       6.285  24.028   9.827  1.00 64.64 LIG 0.06  C 
ENDBRANCH 17 19
ENDBRANCH 13 15
ENDBRANCH 10 13
ENDBRANCH 7 9
ENDBRANCH 4 7
ENDBRANCH 1 3
BRANCH 1 22
ATOM     22  C   ALA E  11      -0.273  18.897   2.753  1.00 81.78 LIG 0.24  C 
ATOM     23  N   ALA E  12      -0.970  19.395   3.772  1.00 82.91 LIG-0.35  N 
ATOM     24 H    ALA E  12      -0.672  19.977   4.332  1.00 82.91 LIG 0.16  HD
ATOM     25 O    ALA E  11      -0.796  18.179   1.892  1.00 89.30 LIG-0.27  OA
BRANCH 23 26
ATOM     26  CA  ALA E  12      -2.341  18.961   4.005  1.00 61.10 LIG 0.17  C 
ATOM     27  CB  ALA E  12      -2.411  17.434   4.155  1.00 65.27 LIG 0.04  C 
BRANCH 26 28
ATOM     28  C   ALA E  12      -2.915  19.643   5.236  1.00 54.59 LIG 0.24  C 
ATOM     29  N   ALA E  13      -2.662  20.950   5.320  1.00 64.78 LIG-0.35  N 
ATOM     30 H    ALA E  13      -2.265  21.400   4.704  1.00 64.78 LIG 0.16  HD
ATOM     31 O    ALA E  12      -3.591  19.022   6.060  1.00 69.11 LIG-0.27  OA
BRANCH 29 32
ATOM     32  CA  ALA E  13      -3.046  21.737   6.481  1.00 54.23 LIG 0.17  C 
ATOM     33  CB  ALA E  13      -2.158  21.377   7.672  1.00 56.27 LIG 0.04  C 
BRANCH 32 34
ATOM     34  C   ALA E  13      -2.929  23.230   6.232  1.00 65.29 LIG 0.24  C 
ATOM     35  N   ALA E  14      -3.199  23.621   4.992  1.00 85.74 LIG-0.35  N 
ATOM     36 H    ALA E  14      -3.391  23.077   4.354  1.00 85.74 LIG 0.16  HD
ATOM     37 O    ALA E  13      -2.662  24.014   7.146  1.00 75.52 LIG-0.27  OA
BRANCH 35 38
ATOM     38  CA  ALA E  14      -3.195  25.017   4.594  1.00 94.46 LIG 0.16  C 
ATOM     39  CB  ALA E  14      -2.947  25.134   3.107  1.00106.12 LIG 0.04  C 
BRANCH 38 40
ATOM     40  C   ALA E  14      -4.516  25.679   4.970  1.00 99.07 LIG 0.22  C 
ATOM     41 O    ALA E  14      -5.531  25.005   5.147  1.00120.33 LIG-0.29  OA
ENDBRANCH 38 40
ENDBRANCH 35 38
ENDBRANCH 32 34
ENDBRANCH 29 32
ENDBRANCH 26 28
ENDBRANCH 23 26
ENDBRANCH 1 22
TORSDOF 13
ENDMDL
MODEL 8
USER: ADFR SOLUTION from run 12
USER: SCORE 5.386111 LL:  -2.284 LR:  -4.678 RR:   0.000 FEB:  -0.800
USER: RMSD 4.615929
USER: SEED 937734
USER: STATUS no improvement in best in 32 clusters for 5 generations
USER: GENES 15
USER: genes 0 Translation |==|  0.58775 0.26848 0.57138
USER: genes 1 Rotation |==|  0.67975 0.59129 0.59590 0.94739
USER: genes 2 Torsion [CB]-CA--N-[C] |==|  0.21271
USER: genes 3 Torsion [N]-C--CA-[N] |==|  0.52222
USER: genes 4 Torsion [C]-CA--N-[C] |==|  0.74203
USER: genes 5 Torsion [N]-C--CA-[N] |==|  0.49103
USER: genes 6 Torsion [C]-CA--N-[C] |==|  0.82938
USER: genes 7 Torsion [N]-C--CA-[N] |==|  0.03355
USER: genes 8 Torsion [N]-CA--C-[N] |==|  0.07538
USER: genes 9 Torsion [C]-N--CA-[CB] |==|  0.17741
USER: genes 10 Torsion [N]-CA--C-[N] |==|  0.07808
USER: genes 11 Torsion [C]-N--CA-[CB] |==|  0.83630
USER: genes 12 Torsion [N]-CA--C-[N] |==|  0.40421
USER: genes 13 Torsion [C]-N--CA-[C] |==|  0.78067
USER: genes 14 Torsion [N]-CA--C-[O] |==|  0.97723
ROOT
ATOM      1  CA  ALA E  11       0.754  19.462   2.479  1.00 85.35 LIG 0.17  C 
ATOM      2  CB  ALA E  11       0.421  18.718   3.774  1.00 80.46 LIG 0.04  C 
ENDROOT
BRANCH 1 3
ATOM      3  N   ALA E  11       1.163  20.830   2.777  1.00 87.15 LIG-0.35  N 
ATOM      4  C   ALA E  10       2.383  21.082   3.258  1.00 62.15 LIG 0.24  C 
ATOM      5 O    ALA E  10       3.271  20.229   3.279  1.00 65.72 LIG-0.27  OA
ATOM      6 H    ALA E  11       0.567  21.430   2.619  1.00 87.15 LIG 0.16  HD
BRANCH 4 7
ATOM      7  CA  ALA E  10       2.655  22.485   3.788  1.00 66.45 LIG 0.17  C 
ATOM      8  CB  ALA E  10       2.203  23.533   2.772  1.00 58.63 LIG 0.04  C 
BRANCH 7 9
ATOM      9  N   ALA E  10       4.061  22.683   4.106  1.00 75.43 LIG-0.35  N 
ATOM     10  C   ALA E   9       4.565  22.478   5.321  1.00 82.21 LIG 0.24  C 
ATOM     11 O    ALA E   9       3.883  22.134   6.293  1.00 73.75 LIG-0.27  OA
ATOM     12 H    ALA E  10       4.535  22.945   3.438  1.00 75.43 LIG 0.16  HD
BRANCH 10 13
ATOM     13  CA  ALA E   9       6.061  22.720   5.475  1.00 87.65 LIG 0.17  C 
ATOM     14  CB  ALA E   9       6.863  21.793   4.565  1.00 72.21 LIG 0.04  C 
BRANCH 13 15
ATOM     15  N   ALA E   9       6.405  22.520   6.877  1.00 84.24 LIG-0.35  N 
ATOM     16 H    ALA E   9       6.968  21.884   7.014  1.00 84.24 LIG 0.16  HD
ATOM     17  C   ALA E   8       5.887  23.262   7.847  1.00 61.40 LIG 0.26  C 
ATOM     18 O    ALA E   8       5.158  24.226   7.627  1.00 66.21 LIG-0.27  OA
BRANCH 17 19
ATOM     19  CA  ALA E   8       6.271  22.876   9.272  1.00 67.03 LIG 0.40  C 
ATOM     20  N   ALA E   8       7.400  21.898   9.266  1.00 60.26 LIG 0.61  N 
ATOM     21  CB  ALA E   8       6.644  24.113  10.082  1.00 64.64 LIG 0.06  C 
ENDBRANCH 17 19
ENDBRANCH 13 15
ENDBRANCH 10 13
ENDBRANCH 7 9
ENDBRANCH 4 7
ENDBRANCH 1 3
BRANCH 1 22
ATOM     22  C   ALA E  11      -0.437  19.428   1.530  1.00 81.78 LIG 0.24  C 
ATOM     23  N   ALA E  12      -0.590  20.457   0.698  1.00 82.91 LIG-0.35  N 
ATOM     24 H    ALA E  12      -0.010  21.082   0.580  1.00 82.91 LIG 0.16  HD
ATOM     25 O    ALA E  11      -1.232  18.481   1.550  1.00 89.30 LIG-0.27  OA
BRANCH 23 26
ATOM     26  CA  ALA E  12      -1.805  20.585  -0.095  1.00 61.10 LIG 0.17  C 
ATOM     27  CB  ALA E  12      -3.028  20.784   0.813  1.00 65.27 LIG 0.04  C 
BRANCH 26 28
ATOM     28  C   ALA E  12      -1.680  21.737  -1.079  1.00 54.59 LIG 0.24  C 
ATOM     29  N   ALA E  13      -0.434  22.006  -1.469  1.00 64.78 LIG-0.35  N 
ATOM     30 H    ALA E  13       0.249  21.536  -1.243  1.00 64.78 LIG 0.16  HD
ATOM     31 O    ALA E  12      -2.675  22.334  -1.500  1.00 69.11 LIG-0.27  OA
BRANCH 29 32
ATOM     32  CA  ALA E  13      -0.122  23.139  -2.325  1.00 54.23 LIG 0.17  C 
ATOM     33  CB  ALA E  13      -0.886  23.022  -3.645  1.00 56.27 LIG 0.04  C 
BRANCH 32 34
ATOM     34  C   ALA E  13      -0.479  24.467  -1.682  1.00 65.29 LIG 0.24  C 
ATOM     35  N   ALA E  14       0.335  25.475  -1.973  1.00 85.74 LIG-0.35  N 
ATOM     36 H    ALA E  14       1.040  25.390  -2.458  1.00 85.74 LIG 0.16  HD
ATOM     37 O    ALA E  13      -1.494  24.593  -0.993  1.00 75.52 LIG-0.27  OA
BRANCH 35 38
ATOM     38  CA  ALA E  14       0.109  26.826  -1.493  1.00 94.46 LIG 0.16  C 
ATOM     39  CB  ALA E  14       1.400  27.612  -1.522  1.00106.12 LIG 0.04  C 
BRANCH 38 40
ATOM     40  C   ALA E  14      -0.957  27.516  -2.337  1.00 99.07 LIG 0.22  C 
ATOM     41 O    ALA E  14      -1.388  26.989  -3.363  1.00120.33 LIG-0.29  OA
ENDBRANCH 38 40
ENDBRANCH 35 38
ENDBRANCH 32 34
ENDBRANCH 29 32
ENDBRANCH 26 28
ENDBRANCH 23 26
ENDBRANCH 1 22
TORSDOF 13
ENDMDL
MODEL 9
USER: ADFR SOLUTION from run 10
USER: SCORE 5.299822 LL:  -2.053 LR:  -4.672 RR:   0.000 FEB:  -0.794
USER: RMSD 4.942588
USER: SEED 607314
USER: STATUS searching
USER: GENES 15
USER: genes 0 Translation |==|  0.58353 0.27384 0.58766
USER: genes 1 Rotation |==|  0.72515 0.75672 0.53753 0.86331
USER: genes 2 Torsion [CB]-CA--N-[C] |==|  0.12803
USER: genes 3 Torsion [N]-C--CA-[N] |==|  0.46348
USER: genes 4 Torsion [C]-CA--N-[C] |==|  0.79458
USER: genes 5 Torsion [N]-C--CA-[N] |==|  0.46003
USER: genes 6 Torsion [C]-CA--N-[C] |==|  0.84343
USER: genes 7 Torsion [N]-C--CA-[N] |==|  0.06186
USER: genes 8 Torsion [N]-CA--C-[N] |==|  0.58941
USER: genes 9 Torsion [C]-N--CA-[CB] |==|  0.51111
USER: genes 10 Torsion [N]-CA--C-[N] |==|  0.42794
USER: genes 11 Torsion [C]-N--CA-[CB] |==|  0.84415
USER: genes 12 Torsion [N]-CA--C-[N] |==|  0.38951
USER: genes 13 Torsion [C]-N--CA-[C] |==|  0.55203
USER: genes 14 Torsion [N]-CA--C-[O] |==|  0.97213
ROOT
ATOM      1  CA  ALA E  11       0.660  19.558   2.772  1.00 85.35 LIG 0.17  C 
ATOM      2  CB  ALA E  11       1.359  18.682   3.813  1.00 80.46 LIG 0.04  C 
ENDROOT
BRANCH 1 3
ATOM      3  N   ALA E  11       1.142  20.932   2.866  1.00 87.15 LIG-0.35  N 
ATOM      4  C   ALA E  10       2.450  21.183   2.959  1.00 62.15 LIG 0.24  C 
ATOM      5 O    ALA E  10       3.303  20.316   2.768  1.00 65.72 LIG-0.27  OA
ATOM      6 H    ALA E  11       0.529  21.534   2.855  1.00 87.15 LIG 0.16  HD
BRANCH 4 7
ATOM      7  CA  ALA E  10       2.870  22.606   3.312  1.00 66.45 LIG 0.17  C 
ATOM      8  CB  ALA E  10       2.591  23.548   2.142  1.00 58.63 LIG 0.04  C 
BRANCH 7 9
ATOM      9  N   ALA E  10       4.276  22.682   3.681  1.00 75.43 LIG-0.35  N 
ATOM     10  C   ALA E   9       4.745  22.239   4.845  1.00 82.21 LIG 0.24  C 
ATOM     11 O    ALA E   9       4.029  21.754   5.729  1.00 73.75 LIG-0.27  OA
ATOM     12 H    ALA E  10       4.774  23.041   3.078  1.00 75.43 LIG 0.16  HD
BRANCH 10 13
ATOM     13  CA  ALA E   9       6.245  22.385   5.062  1.00 87.65 LIG 0.17  C 
ATOM     14  CB  ALA E   9       7.023  21.398   4.194  1.00 72.21 LIG 0.04  C 
BRANCH 13 15
ATOM     15  N   ALA E   9       6.516  22.178   6.479  1.00 84.24 LIG-0.35  N 
ATOM     16 H    ALA E   9       7.083  21.552   6.641  1.00 84.24 LIG 0.16  HD
ATOM     17  C   ALA E   8       5.930  22.899   7.425  1.00 61.40 LIG 0.26  C 
ATOM     18 O    ALA E   8       5.194  23.852   7.174  1.00 66.21 LIG-0.27  OA
BRANCH 17 19
ATOM     19  CA  ALA E   8       6.243  22.507   8.865  1.00 67.03 LIG 0.40  C 
ATOM     20  N   ALA E   8       7.531  21.755   8.938  1.00 60.26 LIG 0.61  N 
ATOM     21  CB  ALA E   8       6.297  23.741   9.759  1.00 64.64 LIG 0.06  C 
ENDBRANCH 17 19
ENDBRANCH 13 15
ENDBRANCH 10 13
ENDBRANCH 7 9
ENDBRANCH 4 7
ENDBRANCH 1 3
BRANCH 1 22
ATOM     22  C   ALA E  11      -0.852  19.484   2.950  1.00 81.78 LIG 0.24  C 
ATOM     23  N   ALA E  12      -1.350  18.392   3.528  1.00 82.91 LIG-0.35  N 
ATOM     24 H    ALA E  12      -0.878  17.779   3.905  1.00 82.91 LIG 0.16  HD
ATOM     25 O    ALA E  11      -1.578  20.404   2.557  1.00 89.30 LIG-0.27  OA
BRANCH 23 26
ATOM     26  CA  ALA E  12      -2.789  18.167   3.553  1.00 61.10 LIG 0.17  C 
ATOM     27  CB  ALA E  12      -3.129  16.901   4.354  1.00 65.27 LIG 0.04  C 
BRANCH 26 28
ATOM     28  C   ALA E  12      -3.507  19.374   4.136  1.00 54.59 LIG 0.24  C 
ATOM     29  N   ALA E  13      -4.767  19.524   3.729  1.00 64.78 LIG-0.35  N 
ATOM     30 H    ALA E  13      -5.179  18.958   3.229  1.00 64.78 LIG 0.16  HD
ATOM     31 O    ALA E  12      -2.955  20.119   4.950  1.00 69.11 LIG-0.27  OA
BRANCH 29 32
ATOM     32  CA  ALA E  13      -5.567  20.679   4.105  1.00 54.23 LIG 0.17  C 
ATOM     33  CB  ALA E  13      -5.617  20.806   5.628  1.00 56.27 LIG 0.04  C 
BRANCH 32 34
ATOM     34  C   ALA E  13      -5.016  21.974   3.536  1.00 65.29 LIG 0.24  C 
ATOM     35  N   ALA E  14      -5.928  22.833   3.095  1.00 85.74 LIG-0.35  N 
ATOM     36 H    ALA E  14      -6.771  22.668   3.090  1.00 85.74 LIG 0.16  HD
ATOM     37 O    ALA E  13      -3.807  22.218   3.549  1.00 75.52 LIG-0.27  OA
BRANCH 35 38
ATOM     38  CA  ALA E  14      -5.581  24.144   2.575  1.00 94.46 LIG 0.16  C 
ATOM     39  CB  ALA E  14      -5.023  24.017   1.176  1.00106.12 LIG 0.04  C 
BRANCH 38 40
ATOM     40  C   ALA E  14      -6.802  25.057   2.584  1.00 99.07 LIG 0.22  C 
ATOM     41 O    ALA E  14      -7.924  24.607   2.816  1.00120.33 LIG-0.29  OA
ENDBRANCH 38 40
ENDBRANCH 35 38
ENDBRANCH 32 34
ENDBRANCH 29 32
ENDBRANCH 26 28
ENDBRANCH 23 26
ENDBRANCH 1 22
TORSDOF 13
ENDMDL
MODEL 10
USER: ADFR SOLUTION from run 91
USER: SCORE 6.378743 LL:  -2.780 LR:  -4.640 RR:   0.000 FEB:  -0.762
USER: RMSD 6.172884
USER: SEED 90
USER: STATUS no improvement in best in 77 clusters for 5 generations
USER: GENES 15
USER: genes 0 Translation |==|  0.63245 0.35108 0.59641
USER: genes 1 Rotation |==|  0.80581 0.64223 0.56421 0.86349
USER: genes 2 Torsion [CB]-CA--N-[C] |==|  0.15463
USER: genes 3 Torsion [N]-C--CA-[N] |==|  0.01900
USER: genes 4 Torsion [C]-CA--N-[C] |==|  0.57826
USER: genes 5 Torsion [N]-C--CA-[N] |==|  0.45454
USER: genes 6 Torsion [C]-CA--N-[C] |==|  0.55358
USER: genes 7 Torsion [N]-C--CA-[N] |==|  0.48521
USER: genes 8 Torsion [N]-CA--C-[N] |==|  0.12138
USER: genes 9 Torsion [C]-N--CA-[CB] |==|  0.84066
USER: genes 10 Torsion [N]-CA--C-[N] |==|  0.39697
USER: genes 11 Torsion [C]-N--CA-[CB] |==|  0.84405
USER: genes 12 Torsion [N]-CA--C-[N] |==|  0.38717
USER: genes 13 Torsion [C]-N--CA-[C] |==|  0.79494
USER: genes 14 Torsion [N]-CA--C-[O] |==|  0.97404
ROOT
ATOM      1  CA  ALA E  11       1.760  20.948   2.929  1.00 85.35 LIG 0.17  C 
ATOM      2  CB  ALA E  11       1.782  19.650   3.739  1.00 80.46 LIG 0.04  C 
ENDROOT
BRANCH 1 3
ATOM      3  N   ALA E  11       2.463  22.002   3.653  1.00 87.15 LIG-0.35  N 
ATOM      4  C   ALA E  10       3.727  21.824   4.047  1.00 62.15 LIG 0.24  C 
ATOM      5 O    ALA E  10       4.412  20.879   3.655  1.00 65.72 LIG-0.27  OA
ATOM      6 H    ALA E  11       2.004  22.716   3.793  1.00 87.15 LIG 0.16  HD
BRANCH 4 7
ATOM      7  CA  ALA E  10       4.314  22.847   5.013  1.00 66.45 LIG 0.17  C 
ATOM      8  CB  ALA E  10       4.954  22.142   6.208  1.00 58.63 LIG 0.04  C 
BRANCH 7 9
ATOM      9  N   ALA E  10       3.311  23.794   5.479  1.00 75.43 LIG-0.35  N 
ATOM     10  C   ALA E   9       3.605  25.037   5.852  1.00 82.21 LIG 0.24  C 
ATOM     11 O    ALA E   9       4.756  25.489   5.869  1.00 73.75 LIG-0.27  OA
ATOM     12 H    ALA E  10       2.512  23.475   5.491  1.00 75.43 LIG 0.16  HD
BRANCH 10 13
ATOM     13  CA  ALA E   9       2.431  25.897   6.299  1.00 87.65 LIG 0.17  C 
ATOM     14  CB  ALA E   9       1.586  26.335   5.105  1.00 72.21 LIG 0.04  C 
BRANCH 13 15
ATOM     15  N   ALA E   9       2.966  27.044   7.022  1.00 84.24 LIG-0.35  N 
ATOM     16 H    ALA E   9       3.797  27.203   6.865  1.00 84.24 LIG 0.16  HD
ATOM     17  C   ALA E   8       2.225  27.770   7.847  1.00 61.40 LIG 0.26  C 
ATOM     18 O    ALA E   8       1.017  27.588   7.989  1.00 66.21 LIG-0.27  OA
BRANCH 17 19
ATOM     19  CA  ALA E   8       2.945  28.883   8.602  1.00 67.03 LIG 0.40  C 
ATOM     20  N   ALA E   8       1.974  29.698   9.392  1.00 60.26 LIG 0.61  N 
ATOM     21  CB  ALA E   8       4.020  28.305   9.515  1.00 64.64 LIG 0.06  C 
ENDBRANCH 17 19
ENDBRANCH 13 15
ENDBRANCH 10 13
ENDBRANCH 7 9
ENDBRANCH 4 7
ENDBRANCH 1 3
BRANCH 1 22
ATOM     22  C   ALA E  11       0.324  21.349   2.614  1.00 81.78 LIG 0.24  C 
ATOM     23  N   ALA E  12       0.116  22.585   2.164  1.00 82.91 LIG-0.35  N 
ATOM     24 H    ALA E  12       0.737  23.134   1.935  1.00 82.91 LIG 0.16  HD
ATOM     25 O    ALA E  11      -0.605  20.551   2.787  1.00 89.30 LIG-0.27  OA
BRANCH 23 26
ATOM     26  CA  ALA E  12      -1.241  23.097   2.030  1.00 61.10 LIG 0.17  C 
ATOM     27  CB  ALA E  12      -2.075  22.195   1.108  1.00 65.27 LIG 0.04  C 
BRANCH 26 28
ATOM     28  C   ALA E  12      -1.902  23.220   3.394  1.00 54.59 LIG 0.24  C 
ATOM     29  N   ALA E  13      -2.697  24.280   3.536  1.00 64.78 LIG-0.35  N 
ATOM     30 H    ALA E  13      -2.884  24.827   2.899  1.00 64.78 LIG 0.16  HD
ATOM     31 O    ALA E  12      -1.731  22.369   4.271  1.00 69.11 LIG-0.27  OA
BRANCH 29 32
ATOM     32  CA  ALA E  13      -3.326  24.608   4.806  1.00 54.23 LIG 0.17  C 
ATOM     33  CB  ALA E  13      -4.149  23.420   5.303  1.00 56.27 LIG 0.04  C 
BRANCH 32 34
ATOM     34  C   ALA E  13      -2.313  24.969   5.877  1.00 65.29 LIG 0.24  C 
ATOM     35  N   ALA E  14      -2.653  25.988   6.659  1.00 85.74 LIG-0.35  N 
ATOM     36 H    ALA E  14      -3.373  26.445   6.555  1.00 85.74 LIG 0.16  HD
ATOM     37 O    ALA E  13      -1.282  24.310   6.034  1.00 75.52 LIG-0.27  OA
BRANCH 35 38
ATOM     38  CA  ALA E  14      -1.831  26.428   7.772  1.00 94.46 LIG 0.16  C 
ATOM     39  CB  ALA E  14      -2.252  27.810   8.215  1.00106.12 LIG 0.04  C 
BRANCH 38 40
ATOM     40  C   ALA E  14      -1.933  25.441   8.929  1.00 99.07 LIG 0.22  C 
ATOM     41 O    ALA E  14      -2.764  24.533   8.911  1.00120.33 LIG-0.29  OA
ENDBRANCH 38 40
ENDBRANCH 35 38
ENDBRANCH 32 34
ENDBRANCH 29 32
ENDBRANCH 26 28
ENDBRANCH 23 26
ENDBRANCH 1 22
TORSDOF 13
ENDMDL
MODEL 11
USER: ADFR SOLUTION from run 91
USER: SCORE 5.672962 LL:  -2.541 LR:  -4.634 RR:   0.000 FEB:  -0.756
USER: RMSD 4.333796
USER: SEED 90
USER: STATUS no improvement in best in 77 clusters for 5 generations
USER: GENES 15
USER: genes 0 Translation |==|  0.63196 0.35604 0.60388
USER: genes 1 Rotation |==|  0.81702 0.66707 0.56177 0.84318
USER: genes 2 Torsion [CB]-CA--N-[C] |==|  0.14486
USER: genes 3 Torsion [N]-C--CA-[N] |==|  0.02536
USER: genes 4 Torsion [C]-CA--N-[C] |==|  0.57925
USER: genes 5 Torsion [N]-C--CA-[N] |==|  0.45719
USER: genes 6 Torsion [C]-CA--N-[C] |==|  0.55334
USER: genes 7 Torsion [N]-C--CA-[N] |==|  0.48516
USER: genes 8 Torsion [N]-CA--C-[N] |==|  0.11862
USER: genes 9 Torsion [C]-N--CA-[CB] |==|  0.18614
USER: genes 10 Torsion [N]-CA--C-[N] |==|  0.09417
USER: genes 11 Torsion [C]-N--CA-[CB] |==|  0.52489
USER: genes 12 Torsion [N]-CA--C-[N] |==|  0.42100
USER: genes 13 Torsion [C]-N--CA-[C] |==|  0.77226
USER: genes 14 Torsion [N]-CA--C-[O] |==|  0.97266
ROOT
ATOM      1  CA  ALA E  11       1.749  21.038   3.064  1.00 85.35 LIG 0.17  C 
ATOM      2  CB  ALA E  11       1.921  19.694   3.774  1.00 80.46 LIG 0.04  C 
ENDROOT
BRANCH 1 3
ATOM      3  N   ALA E  11       2.475  22.080   3.781  1.00 87.15 LIG-0.35  N 
ATOM      4  C   ALA E  10       3.765  21.916   4.088  1.00 62.15 LIG 0.24  C 
ATOM      5 O    ALA E  10       4.443  21.001   3.619  1.00 65.72 LIG-0.27  OA
ATOM      6 H    ALA E  11       2.012  22.778   3.976  1.00 87.15 LIG 0.16  HD
BRANCH 4 7
ATOM      7  CA  ALA E  10       4.391  22.916   5.053  1.00 66.45 LIG 0.17  C 
ATOM      8  CB  ALA E  10       5.167  22.184   6.147  1.00 58.63 LIG 0.04  C 
BRANCH 7 9
ATOM      9  N   ALA E  10       3.394  23.788   5.657  1.00 75.43 LIG-0.35  N 
ATOM     10  C   ALA E   9       3.665  25.027   6.063  1.00 82.21 LIG 0.24  C 
ATOM     11 O    ALA E   9       4.790  25.535   5.997  1.00 73.75 LIG-0.27  OA
ATOM     12 H    ALA E  10       2.616  23.429   5.726  1.00 75.43 LIG 0.16  HD
BRANCH 10 13
ATOM     13  CA  ALA E   9       2.500  25.805   6.659  1.00 87.65 LIG 0.17  C 
ATOM     14  CB  ALA E   9       1.514  26.233   5.575  1.00 72.21 LIG 0.04  C 
BRANCH 13 15
ATOM     15  N   ALA E   9       3.045  26.956   7.368  1.00 84.24 LIG-0.35  N 
ATOM     16 H    ALA E   9       3.846  27.165   7.134  1.00 84.24 LIG 0.16  HD
ATOM     17  C   ALA E   8       2.355  27.612   8.290  1.00 61.40 LIG 0.26  C 
ATOM     18 O    ALA E   8       1.179  27.360   8.545  1.00 66.21 LIG-0.27  OA
BRANCH 17 19
ATOM     19  CA  ALA E   8       3.090  28.739   9.010  1.00 67.03 LIG 0.40  C 
ATOM     20  N   ALA E   8       2.164  29.473   9.923  1.00 60.26 LIG 0.61  N 
ATOM     21  CB  ALA E   8       4.281  28.191   9.789  1.00 64.64 LIG 0.06  C 
ENDBRANCH 17 19
ENDBRANCH 13 15
ENDBRANCH 10 13
ENDBRANCH 7 9
ENDBRANCH 4 7
ENDBRANCH 1 3
BRANCH 1 22
ATOM     22  C   ALA E  11       0.270  21.379   2.930  1.00 81.78 LIG 0.24  C 
ATOM     23  N   ALA E  12      -0.045  22.633   2.611  1.00 82.91 LIG-0.35  N 
ATOM     24 H    ALA E  12       0.521  23.234   2.368  1.00 82.91 LIG 0.16  HD
ATOM     25 O    ALA E  11      -0.595  20.516   3.125  1.00 89.30 LIG-0.27  OA
BRANCH 23 26
ATOM     26  CA  ALA E  12      -1.433  23.074   2.658  1.00 61.10 LIG 0.17  C 
ATOM     27  CB  ALA E  12      -1.951  23.088   4.104  1.00 65.27 LIG 0.04  C 
BRANCH 26 28
ATOM     28  C   ALA E  12      -1.576  24.451   2.029  1.00 54.59 LIG 0.24  C 
ATOM     29  N   ALA E  13      -0.753  24.686   1.007  1.00 64.78 LIG-0.35  N 
ATOM     30 H    ALA E  13      -0.223  24.096   0.674  1.00 64.78 LIG 0.16  HD
ATOM     31 O    ALA E  12      -2.422  25.256   2.428  1.00 69.11 LIG-0.27  OA
BRANCH 29 32
ATOM     32  CA  ALA E  13      -0.683  25.985   0.356  1.00 54.23 LIG 0.17  C 
ATOM     33  CB  ALA E  13       0.173  25.890  -0.908  1.00 56.27 LIG 0.04  C 
BRANCH 32 34
ATOM     34  C   ALA E  13      -2.052  26.513  -0.032  1.00 65.29 LIG 0.24  C 
ATOM     35  N   ALA E  14      -2.160  27.836  -0.067  1.00 85.74 LIG-0.35  N 
ATOM     36 H    ALA E  14      -1.521  28.370   0.147  1.00 85.74 LIG 0.16  HD
ATOM     37 O    ALA E  13      -2.968  25.750  -0.349  1.00 75.52 LIG-0.27  OA
BRANCH 35 38
ATOM     38  CA  ALA E  14      -3.379  28.511  -0.477  1.00 94.46 LIG 0.16  C 
ATOM     39  CB  ALA E  14      -3.432  29.898   0.122  1.00106.12 LIG 0.04  C 
BRANCH 38 40
ATOM     40  C   ALA E  14      -3.460  28.581  -1.998  1.00 99.07 LIG 0.22  C 
ATOM     41 O    ALA E  14      -2.495  28.270  -2.695  1.00120.33 LIG-0.29  OA
ENDBRANCH 38 40
ENDBRANCH 35 38
ENDBRANCH 32 34
ENDBRANCH 29 32
ENDBRANCH 26 28
ENDBRANCH 23 26
ENDBRANCH 1 22
TORSDOF 13
ENDMDL
MODEL 12
USER: ADFR SOLUTION from run 91
USER: SCORE 5.150887 LL:  -2.232 LR:  -4.617 RR:   0.000 FEB:  -0.739
USER: RMSD 4.293711
USER: SEED 90
USER: STATUS no improvement in best in 77 clusters for 5 generations
USER: GENES 15
USER: genes 0 Translation |==|  0.63205 0.35520 0.60386
USER: genes 1 Rotation |==|  0.81819 0.66648 0.56309 0.84214
USER: genes 2 Torsion [CB]-CA--N-[C] |==|  0.14567
USER: genes 3 Torsion [N]-C--CA-[N] |==|  0.02644
USER: genes 4 Torsion [C]-CA--N-[C] |==|  0.57778
USER: genes 5 Torsion [N]-C--CA-[N] |==|  0.46676
USER: genes 6 Torsion [C]-CA--N-[C] |==|  0.55525
USER: genes 7 Torsion [N]-C--CA-[N] |==|  0.47836
USER: genes 8 Torsion [N]-CA--C-[N] |==|  0.54208
USER: genes 9 Torsion [C]-N--CA-[CB] |==|  0.84066
USER: genes 10 Torsion [N]-CA--C-[N] |==|  0.39697
USER: genes 11 Torsion [C]-N--CA-[CB] |==|  0.84342
USER: genes 12 Torsion [N]-CA--C-[N] |==|  0.38876
USER: genes 13 Torsion [C]-N--CA-[C] |==|  0.77026
USER: genes 14 Torsion [N]-CA--C-[O] |==|  0.97277
ROOT
ATOM      1  CA  ALA E  11       1.751  21.023   3.063  1.00 85.35 LIG 0.17  C 
ATOM      2  CB  ALA E  11       1.922  19.673   3.764  1.00 80.46 LIG 0.04  C 
ENDROOT
BRANCH 1 3
ATOM      3  N   ALA E  11       2.474  22.060   3.790  1.00 87.15 LIG-0.35  N 
ATOM      4  C   ALA E  10       3.764  21.898   4.095  1.00 62.15 LIG 0.24  C 
ATOM      5 O    ALA E  10       4.445  20.990   3.616  1.00 65.72 LIG-0.27  OA
ATOM      6 H    ALA E  11       2.008  22.754   3.993  1.00 87.15 LIG 0.16  HD
BRANCH 4 7
ATOM      7  CA  ALA E  10       4.388  22.890   5.071  1.00 66.45 LIG 0.17  C 
ATOM      8  CB  ALA E  10       5.175  22.149   6.150  1.00 58.63 LIG 0.04  C 
BRANCH 7 9
ATOM      9  N   ALA E  10       3.387  23.746   5.690  1.00 75.43 LIG-0.35  N 
ATOM     10  C   ALA E   9       3.652  24.977   6.121  1.00 82.21 LIG 0.24  C 
ATOM     11 O    ALA E   9       4.775  25.491   6.065  1.00 73.75 LIG-0.27  OA
ATOM     12 H    ALA E  10       2.610  23.382   5.753  1.00 75.43 LIG 0.16  HD
BRANCH 10 13
ATOM     13  CA  ALA E   9       2.484  25.739   6.732  1.00 87.65 LIG 0.17  C 
ATOM     14  CB  ALA E   9       1.454  26.110   5.667  1.00 72.21 LIG 0.04  C 
BRANCH 13 15
ATOM     15  N   ALA E   9       3.018  26.923   7.393  1.00 84.24 LIG-0.35  N 
ATOM     16 H    ALA E   9       3.801  27.153   7.123  1.00 84.24 LIG 0.16  HD
ATOM     17  C   ALA E   8       2.342  27.577   8.328  1.00 61.40 LIG 0.26  C 
ATOM     18 O    ALA E   8       1.187  27.292   8.635  1.00 66.21 LIG-0.27  OA
BRANCH 17 19
ATOM     19  CA  ALA E   8       3.066  28.743   8.994  1.00 67.03 LIG 0.40  C 
ATOM     20  N   ALA E   8       2.136  29.503   9.882  1.00 60.26 LIG 0.61  N 
ATOM     21  CB  ALA E   8       4.270  28.246   9.786  1.00 64.64 LIG 0.06  C 
ENDBRANCH 17 19
ENDBRANCH 13 15
ENDBRANCH 10 13
ENDBRANCH 7 9
ENDBRANCH 4 7
ENDBRANCH 1 3
BRANCH 1 22
ATOM     22  C   ALA E  11       0.272  21.363   2.928  1.00 81.78 LIG 0.24  C 
ATOM     23  N   ALA E  12      -0.554  20.382   2.568  1.00 82.91 LIG-0.35  N 
ATOM     24 H    ALA E  12      -0.335  19.552   2.514  1.00 82.91 LIG 0.16  HD
ATOM     25 O    ALA E  11      -0.130  22.514   3.135  1.00 89.30 LIG-0.27  OA
BRANCH 23 26
ATOM     26  CA  ALA E  12      -1.940  20.678   2.231  1.00 61.10 LIG 0.17  C 
ATOM     27  CB  ALA E  12      -2.647  21.381   3.400  1.00 65.27 LIG 0.04  C 
BRANCH 26 28
ATOM     28  C   ALA E  12      -2.013  21.531   0.975  1.00 54.59 LIG 0.24  C 
ATOM     29  N   ALA E  13      -3.033  21.246   0.165  1.00 64.78 LIG-0.35  N 
ATOM     30 H    ALA E  13      -3.647  20.674   0.353  1.00 64.78 LIG 0.16  HD
ATOM     31 O    ALA E  12      -1.201  22.436   0.764  1.00 69.11 LIG-0.27  OA
BRANCH 29 32
ATOM     32  CA  ALA E  13      -3.194  21.892  -1.128  1.00 54.23 LIG 0.17  C 
ATOM     33  CB  ALA E  13      -3.238  23.410  -0.951  1.00 56.27 LIG 0.04  C 
BRANCH 32 34
ATOM     34  C   ALA E  13      -2.068  21.556  -2.088  1.00 65.29 LIG 0.24  C 
ATOM     35  N   ALA E  14      -2.439  21.346  -3.346  1.00 85.74 LIG-0.35  N 
ATOM     36 H    ALA E  14      -3.258  21.358  -3.607  1.00 85.74 LIG 0.16  HD
ATOM     37 O    ALA E  13      -0.891  21.545  -1.719  1.00 75.52 LIG-0.27  OA
BRANCH 35 38
ATOM     38  CA  ALA E  14      -1.486  21.072  -4.407  1.00 94.46 LIG 0.16  C 
ATOM     39  CB  ALA E  14      -2.155  20.300  -5.521  1.00106.12 LIG 0.04  C 
BRANCH 38 40
ATOM     40  C   ALA E  14      -0.897  22.374  -4.938  1.00 99.07 LIG 0.22  C 
ATOM     41 O    ALA E  14      -1.366  23.462  -4.602  1.00120.33 LIG-0.29  OA
ENDBRANCH 38 40
ENDBRANCH 35 38
ENDBRANCH 32 34
ENDBRANCH 29 32
ENDBRANCH 26 28
ENDBRANCH 23 26
ENDBRANCH 1 22
TORSDOF 13
ENDMDL
MODEL 13
USER: ADFR SOLUTION from run 144
USER: SCORE 5.854344 LL:  -2.259 LR:  -4.611 RR:   0.000 FEB:  -0.733
USER: RMSD 6.110962
USER: SEED 143
USER: STATUS no improvement in best in 33 clusters for 5 generations
USER: GENES 15
USER: genes 0 Translation |==|  0.64863 0.29439 0.57233
USER: genes 1 Rotation |==|  0.65775 0.73790 0.54526 0.90801
USER: genes 2 Torsion [CB]-CA--N-[C] |==|  0.13333
USER: genes 3 Torsion [N]-C--CA-[N] |==|  0.31723
USER: genes 4 Torsion [C]-CA--N-[C] |==|  0.84989
USER: genes 5 Torsion [N]-C--CA-[N] |==|  0.32884
USER: genes 6 Torsion [C]-CA--N-[C] |==|  0.73734
USER: genes 7 Torsion [N]-C--CA-[N] |==|  0.42529
USER: genes 8 Torsion [N]-CA--C-[N] |==|  0.03907
USER: genes 9 Torsion [C]-N--CA-[CB] |==|  0.83788
USER: genes 10 Torsion [N]-CA--C-[N] |==|  0.36812
USER: genes 11 Torsion [C]-N--CA-[CB] |==|  0.84817
USER: genes 12 Torsion [N]-CA--C-[N] |==|  0.39367
USER: genes 13 Torsion [C]-N--CA-[C] |==|  0.82649
USER: genes 14 Torsion [N]-CA--C-[O] |==|  0.08075
ROOT
ATOM      1  CA  ALA E  11       2.124  19.928   2.496  1.00 85.35 LIG 0.17  C 
ATOM      2  CB  ALA E  11       2.685  19.432   3.830  1.00 80.46 LIG 0.04  C 
ENDROOT
BRANCH 1 3
ATOM      3  N   ALA E  11       2.455  21.336   2.305  1.00 87.15 LIG-0.35  N 
ATOM      4  C   ALA E  10       3.703  21.770   2.505  1.00 62.15 LIG 0.24  C 
ATOM      5 O    ALA E  10       4.652  20.999   2.653  1.00 65.72 LIG-0.27  OA
ATOM      6 H    ALA E  11       1.798  21.835   2.061  1.00 87.15 LIG 0.16  HD
BRANCH 4 7
ATOM      7  CA  ALA E  10       3.926  23.277   2.542  1.00 66.45 LIG 0.17  C 
ATOM      8  CB  ALA E  10       4.960  23.686   1.494  1.00 58.63 LIG 0.04  C 
BRANCH 7 9
ATOM      9  N   ALA E  10       4.351  23.732   3.857  1.00 75.43 LIG-0.35  N 
ATOM     10  C   ALA E   9       3.673  23.465   4.971  1.00 82.21 LIG 0.24  C 
ATOM     11 O    ALA E   9       2.608  22.838   4.987  1.00 73.75 LIG-0.27  OA
ATOM     12 H    ALA E  10       5.080  24.190   3.847  1.00 75.43 LIG 0.16  HD
BRANCH 10 13
ATOM     13  CA  ALA E   9       4.269  24.008   6.263  1.00 87.65 LIG 0.17  C 
ATOM     14  CB  ALA E   9       4.605  22.874   7.230  1.00 72.21 LIG 0.04  C 
BRANCH 13 15
ATOM     15  N   ALA E   9       3.308  24.937   6.844  1.00 84.24 LIG-0.35  N 
ATOM     16 H    ALA E   9       2.709  24.562   7.335  1.00 84.24 LIG 0.16  HD
ATOM     17  C   ALA E   8       3.365  26.243   6.626  1.00 61.40 LIG 0.26  C 
ATOM     18 O    ALA E   8       4.281  26.773   6.000  1.00 66.21 LIG-0.27  OA
BRANCH 17 19
ATOM     19  CA  ALA E   8       2.238  27.079   7.226  1.00 67.03 LIG 0.40  C 
ATOM     20  N   ALA E   8       2.700  28.474   7.492  1.00 60.26 LIG 0.61  N 
ATOM     21  CB  ALA E   8       1.025  27.088   6.302  1.00 64.64 LIG 0.06  C 
ENDBRANCH 17 19
ENDBRANCH 13 15
ENDBRANCH 10 13
ENDBRANCH 7 9
ENDBRANCH 4 7
ENDBRANCH 1 3
BRANCH 1 22
ATOM     22  C   ALA E  11       0.619  19.695   2.438  1.00 81.78 LIG 0.24  C 
ATOM     23  N   ALA E  12      -0.136  20.679   1.952  1.00 82.91 LIG-0.35  N 
ATOM     24 H    ALA E  12       0.168  21.387   1.569  1.00 82.91 LIG 0.16  HD
ATOM     25 O    ALA E  11       0.130  18.633   2.841  1.00 89.30 LIG-0.27  OA
BRANCH 23 26
ATOM     26  CA  ALA E  12      -1.588  20.603   2.048  1.00 61.10 LIG 0.17  C 
ATOM     27  CB  ALA E  12      -2.115  19.342   1.347  1.00 65.27 LIG 0.04  C 
BRANCH 26 28
ATOM     28  C   ALA E  12      -2.028  20.627   3.503  1.00 54.59 LIG 0.24  C 
ATOM     29  N   ALA E  13      -3.020  21.476   3.772  1.00 64.78 LIG-0.35  N 
ATOM     30 H    ALA E  13      -3.433  21.934   3.173  1.00 64.78 LIG 0.16  HD
ATOM     31 O    ALA E  12      -1.517  19.880   4.342  1.00 69.11 LIG-0.27  OA
BRANCH 29 32
ATOM     32  CA  ALA E  13      -3.494  21.703   5.128  1.00 54.23 LIG 0.17  C 
ATOM     33  CB  ALA E  13      -3.882  20.373   5.775  1.00 56.27 LIG 0.04  C 
BRANCH 32 34
ATOM     34  C   ALA E  13      -2.449  22.372   6.003  1.00 65.29 LIG 0.24  C 
ATOM     35  N   ALA E  14      -2.918  23.277   6.854  1.00 85.74 LIG-0.35  N 
ATOM     36 H    ALA E  14      -3.745  23.507   6.894  1.00 85.74 LIG 0.16  HD
ATOM     37 O    ALA E  13      -1.262  22.039   5.953  1.00 75.52 LIG-0.27  OA
BRANCH 35 38
ATOM     38  CA  ALA E  14      -2.067  23.970   7.806  1.00 94.46 LIG 0.16  C 
ATOM     39  CB  ALA E  14      -2.864  25.016   8.551  1.00106.12 LIG 0.04  C 
BRANCH 38 40
ATOM     40  C   ALA E  14      -1.445  22.977   8.780  1.00 99.07 LIG 0.22  C 
ATOM     41 O    ALA E  14      -1.224  21.814   8.441  1.00120.33 LIG-0.29  OA
ENDBRANCH 38 40
ENDBRANCH 35 38
ENDBRANCH 32 34
ENDBRANCH 29 32
ENDBRANCH 26 28
ENDBRANCH 23 26
ENDBRANCH 1 22
TORSDOF 13
ENDMDL
MODEL 14
USER: ADFR SOLUTION from run 91
USER: SCORE 5.442295 LL:  -2.314 LR:  -4.612 RR:   0.000 FEB:  -0.734
USER: RMSD 4.215704
USER: SEED 90
USER: STATUS no improvement in best in 77 clusters for 5 generations
USER: GENES 15
USER: genes 0 Translation |==|  0.63205 0.35520 0.60386
USER: genes 1 Rotation |==|  0.81819 0.66648 0.56309 0.84214
USER: genes 2 Torsion [CB]-CA--N-[C] |==|  0.14567
USER: genes 3 Torsion [N]-C--CA-[N] |==|  0.02644
USER: genes 4 Torsion [C]-CA--N-[C] |==|  0.57778
USER: genes 5 Torsion [N]-C--CA-[N] |==|  0.46676
USER: genes 6 Torsion [C]-CA--N-[C] |==|  0.55525
USER: genes 7 Torsion [N]-C--CA-[N] |==|  0.47836
USER: genes 8 Torsion [N]-CA--C-[N] |==|  0.10829
USER: genes 9 Torsion [C]-N--CA-[CB] |==|  0.52249
USER: genes 10 Torsion [N]-CA--C-[N] |==|  0.41313
USER: genes 11 Torsion [C]-N--CA-[CB] |==|  0.52778
USER: genes 12 Torsion [N]-CA--C-[N] |==|  0.41669
USER: genes 13 Torsion [C]-N--CA-[C] |==|  0.77377
USER: genes 14 Torsion [N]-CA--C-[O] |==|  0.97357
ROOT
ATOM      1  CA  ALA E  11       1.751  21.023   3.063  1.00 85.35 LIG 0.17  C 
ATOM      2  CB  ALA E  11       1.922  19.673   3.764  1.00 80.46 LIG 0.04  C 
ENDROOT
BRANCH 1 3
ATOM      3  N   ALA E  11       2.474  22.060   3.790  1.00 87.15 LIG-0.35  N 
ATOM      4  C   ALA E  10       3.764  21.898   4.095  1.00 62.15 LIG 0.24  C 
ATOM      5 O    ALA E  10       4.445  20.990   3.616  1.00 65.72 LIG-0.27  OA
ATOM      6 H    ALA E  11       2.008  22.754   3.993  1.00 87.15 LIG 0.16  HD
BRANCH 4 7
ATOM      7  CA  ALA E  10       4.388  22.890   5.071  1.00 66.45 LIG 0.17  C 
ATOM      8  CB  ALA E  10       5.175  22.149   6.150  1.00 58.63 LIG 0.04  C 
BRANCH 7 9
ATOM      9  N   ALA E  10       3.387  23.746   5.690  1.00 75.43 LIG-0.35  N 
ATOM     10  C   ALA E   9       3.652  24.977   6.121  1.00 82.21 LIG 0.24  C 
ATOM     11 O    ALA E   9       4.775  25.491   6.065  1.00 73.75 LIG-0.27  OA
ATOM     12 H    ALA E  10       2.610  23.382   5.753  1.00 75.43 LIG 0.16  HD
BRANCH 10 13
ATOM     13  CA  ALA E   9       2.484  25.739   6.732  1.00 87.65 LIG 0.17  C 
ATOM     14  CB  ALA E   9       1.454  26.110   5.667  1.00 72.21 LIG 0.04  C 
BRANCH 13 15
ATOM     15  N   ALA E   9       3.018  26.923   7.393  1.00 84.24 LIG-0.35  N 
ATOM     16 H    ALA E   9       3.801  27.153   7.123  1.00 84.24 LIG 0.16  HD
ATOM     17  C   ALA E   8       2.342  27.577   8.328  1.00 61.40 LIG 0.26  C 
ATOM     18 O    ALA E   8       1.187  27.292   8.635  1.00 66.21 LIG-0.27  OA
BRANCH 17 19
ATOM     19  CA  ALA E   8       3.066  28.743   8.994  1.00 67.03 LIG 0.40  C 
ATOM     20  N   ALA E   8       2.136  29.503   9.882  1.00 60.26 LIG 0.61  N 
ATOM     21  CB  ALA E   8       4.270  28.246   9.786  1.00 64.64 LIG 0.06  C 
ENDBRANCH 17 19
ENDBRANCH 13 15
ENDBRANCH 10 13
ENDBRANCH 7 9
ENDBRANCH 4 7
ENDBRANCH 1 3
BRANCH 1 22
ATOM     22  C   ALA E  11       0.272  21.363   2.928  1.00 81.78 LIG 0.24  C 
ATOM     23  N   ALA E  12      -0.047  22.634   2.693  1.00 82.91 LIG-0.35  N 
ATOM     24 H    ALA E  12       0.519  23.254   2.503  1.00 82.91 LIG 0.16  HD
ATOM     25 O    ALA E  11      -0.590  20.484   3.046  1.00 89.30 LIG-0.27  OA
BRANCH 23 26
ATOM     26  CA  ALA E  12      -1.438  23.063   2.746  1.00 61.10 LIG 0.17  C 
ATOM     27  CB  ALA E  12      -1.582  24.509   2.249  1.00 65.27 LIG 0.04  C 
BRANCH 26 28
ATOM     28  C   ALA E  12      -2.315  22.129   1.928  1.00 54.59 LIG 0.24  C 
ATOM     29  N   ALA E  13      -3.560  21.990   2.384  1.00 64.78 LIG-0.35  N 
ATOM     30 H    ALA E  13      -3.879  22.434   3.048  1.00 64.78 LIG 0.16  HD
ATOM     31 O    ALA E  12      -1.895  21.585   0.903  1.00 69.11 LIG-0.27  OA
BRANCH 29 32
ATOM     32  CA  ALA E  13      -4.501  21.057   1.785  1.00 54.23 LIG 0.17  C 
ATOM     33  CB  ALA E  13      -5.903  21.294   2.349  1.00 56.27 LIG 0.04  C 
BRANCH 32 34
ATOM     34  C   ALA E  13      -4.566  21.190   0.274  1.00 65.29 LIG 0.24  C 
ATOM     35  N   ALA E  14      -4.862  20.074  -0.382  1.00 85.74 LIG-0.35  N 
ATOM     36 H    ALA E  14      -4.975  19.313   0.004  1.00 85.74 LIG 0.16  HD
ATOM     37 O    ALA E  13      -4.413  22.281  -0.281  1.00 75.52 LIG-0.27  OA
BRANCH 35 38
ATOM     38  CA  ALA E  14      -5.024  20.033  -1.824  1.00 94.46 LIG 0.16  C 
ATOM     39  CB  ALA E  14      -4.776  18.633  -2.336  1.00106.12 LIG 0.04  C 
BRANCH 38 40
ATOM     40  C   ALA E  14      -6.420  20.506  -2.213  1.00 99.07 LIG 0.22  C 
ATOM     41 O    ALA E  14      -7.286  20.688  -1.357  1.00120.33 LIG-0.29  OA
ENDBRANCH 38 40
ENDBRANCH 35 38
ENDBRANCH 32 34
ENDBRANCH 29 32
ENDBRANCH 26 28
ENDBRANCH 23 26
ENDBRANCH 1 22
TORSDOF 13
ENDMDL
MODEL 15
USER: ADFR SOLUTION from run 91
USER: SCORE 5.615687 LL:  -2.302 LR:  -4.606 RR:   0.000 FEB:  -0.729
USER: RMSD 5.199669
USER: SEED 90
USER: STATUS no improvement in best in 77 clusters for 5 generations
USER: GENES 15
USER: genes 0 Translation |==|  0.63205 0.35520 0.60386
USER: genes 1 Rotation |==|  0.81819 0.66648 0.56309 0.84214
USER: genes 2 Torsion [CB]-CA--N-[C] |==|  0.14567
USER: genes 3 Torsion [N]-C--CA-[N] |==|  0.02644
USER: genes 4 Torsion [C]-CA--N-[C] |==|  0.57778
USER: genes 5 Torsion [N]-C--CA-[N] |==|  0.46676
USER: genes 6 Torsion [C]-CA--N-[C] |==|  0.55525
USER: genes 7 Torsion [N]-C--CA-[N] |==|  0.47836
USER: genes 8 Torsion [N]-CA--C-[N] |==|  0.10829
USER: genes 9 Torsion [C]-N--CA-[CB] |==|  0.52249
USER: genes 10 Torsion [N]-CA--C-[N] |==|  0.41512
USER: genes 11 Torsion [C]-N--CA-[CB] |==|  0.84912
USER: genes 12 Torsion [N]-CA--C-[N] |==|  0.37779
USER: genes 13 Torsion [C]-N--CA-[C] |==|  0.61280
USER: genes 14 Torsion [N]-CA--C-[O] |==|  0.97394
ROOT
ATOM      1  CA  ALA E  11       1.751  21.023   3.063  1.00 85.35 LIG 0.17  C 
ATOM      2  CB  ALA E  11       1.922  19.673   3.764  1.00 80.46 LIG 0.04  C 
ENDROOT
BRANCH 1 3
ATOM      3  N   ALA E  11       2.474  22.060   3.790  1.00 87.15 LIG-0.35  N 
ATOM      4  C   ALA E  10       3.764  21.898   4.095  1.00 62.15 LIG 0.24  C 
ATOM      5 O    ALA E  10       4.445  20.990   3.616  1.00 65.72 LIG-0.27  OA
ATOM      6 H    ALA E  11       2.008  22.754   3.993  1.00 87.15 LIG 0.16  HD
BRANCH 4 7
ATOM      7  CA  ALA E  10       4.388  22.890   5.071  1.00 66.45 LIG 0.17  C 
ATOM      8  CB  ALA E  10       5.175  22.149   6.150  1.00 58.63 LIG 0.04  C 
BRANCH 7 9
ATOM      9  N   ALA E  10       3.387  23.746   5.690  1.00 75.43 LIG-0.35  N 
ATOM     10  C   ALA E   9       3.652  24.977   6.121  1.00 82.21 LIG 0.24  C 
ATOM     11 O    ALA E   9       4.775  25.491   6.065  1.00 73.75 LIG-0.27  OA
ATOM     12 H    ALA E  10       2.610  23.382   5.753  1.00 75.43 LIG 0.16  HD
BRANCH 10 13
ATOM     13  CA  ALA E   9       2.484  25.739   6.732  1.00 87.65 LIG 0.17  C 
ATOM     14  CB  ALA E   9       1.454  26.110   5.667  1.00 72.21 LIG 0.04  C 
BRANCH 13 15
ATOM     15  N   ALA E   9       3.018  26.923   7.393  1.00 84.24 LIG-0.35  N 
ATOM     16 H    ALA E   9       3.801  27.153   7.123  1.00 84.24 LIG 0.16  HD
ATOM     17  C   ALA E   8       2.342  27.577   8.328  1.00 61.40 LIG 0.26  C 
ATOM     18 O    ALA E   8       1.187  27.292   8.635  1.00 66.21 LIG-0.27  OA
BRANCH 17 19
ATOM     19  CA  ALA E   8       3.066  28.743   8.994  1.00 67.03 LIG 0.40  C 
ATOM     20  N   ALA E   8       2.136  29.503   9.882  1.00 60.26 LIG 0.61  N 
ATOM     21  CB  ALA E   8       4.270  28.246   9.786  1.00 64.64 LIG 0.06  C 
ENDBRANCH 17 19
ENDBRANCH 13 15
ENDBRANCH 10 13
ENDBRANCH 7 9
ENDBRANCH 4 7
ENDBRANCH 1 3
BRANCH 1 22
ATOM     22  C   ALA E  11       0.272  21.363   2.928  1.00 81.78 LIG 0.24  C 
ATOM     23  N   ALA E  12      -0.047  22.634   2.693  1.00 82.91 LIG-0.35  N 
ATOM     24 H    ALA E  12       0.519  23.254   2.503  1.00 82.91 LIG 0.16  HD
ATOM     25 O    ALA E  11      -0.590  20.484   3.046  1.00 89.30 LIG-0.27  OA
BRANCH 23 26
ATOM     26  CA  ALA E  12      -1.438  23.063   2.746  1.00 61.10 LIG 0.17  C 
ATOM     27  CB  ALA E  12      -1.582  24.509   2.249  1.00 65.27 LIG 0.04  C 
BRANCH 26 28
ATOM     28  C   ALA E  12      -2.315  22.129   1.928  1.00 54.59 LIG 0.24  C 
ATOM     29  N   ALA E  13      -3.565  22.001   2.375  1.00 64.78 LIG-0.35  N 
ATOM     30 H    ALA E  13      -3.885  22.453   3.034  1.00 64.78 LIG 0.16  HD
ATOM     31 O    ALA E  12      -1.891  21.575   0.910  1.00 69.11 LIG-0.27  OA
BRANCH 29 32
ATOM     32  CA  ALA E  13      -4.507  21.071   1.776  1.00 54.23 LIG 0.17  C 
ATOM     33  CB  ALA E  13      -4.609  21.327   0.272  1.00 56.27 LIG 0.04  C 
BRANCH 32 34
ATOM     34  C   ALA E  13      -4.105  19.622   1.987  1.00 65.29 LIG 0.24  C 
ATOM     35  N   ALA E  14      -5.090  18.806   2.342  1.00 85.74 LIG-0.35  N 
ATOM     36 H    ALA E  14      -5.896  19.069   2.483  1.00 85.74 LIG 0.16  HD
ATOM     37 O    ALA E  13      -2.951  19.240   1.777  1.00 75.52 LIG-0.27  OA
BRANCH 35 38
ATOM     38  CA  ALA E  14      -4.895  17.379   2.527  1.00 94.46 LIG 0.16  C 
ATOM     39  CB  ALA E  14      -4.715  17.064   3.994  1.00106.12 LIG 0.04  C 
BRANCH 38 40
ATOM     40  C   ALA E  14      -6.077  16.604   1.954  1.00 99.07 LIG 0.22  C 
ATOM     41 O    ALA E  14      -7.094  17.190   1.583  1.00120.33 LIG-0.29  OA
ENDBRANCH 38 40
ENDBRANCH 35 38
ENDBRANCH 32 34
ENDBRANCH 29 32
ENDBRANCH 26 28
ENDBRANCH 23 26
ENDBRANCH 1 22
TORSDOF 13
ENDMDL
MODEL 16
USER: ADFR SOLUTION from run 12
USER: SCORE 5.035167 LL:  -2.398 LR:  -4.600 RR:   0.000 FEB:  -0.723
USER: RMSD 5.436069
USER: SEED 937734
USER: STATUS no improvement in best in 32 clusters for 5 generations
USER: GENES 15
USER: genes 0 Translation |==|  0.58775 0.26848 0.57138
USER: genes 1 Rotation |==|  0.67975 0.59129 0.59590 0.94739
USER: genes 2 Torsion [CB]-CA--N-[C] |==|  0.21271
USER: genes 3 Torsion [N]-C--CA-[N] |==|  0.52222
USER: genes 4 Torsion [C]-CA--N-[C] |==|  0.74203
USER: genes 5 Torsion [N]-C--CA-[N] |==|  0.49103
USER: genes 6 Torsion [C]-CA--N-[C] |==|  0.82938
USER: genes 7 Torsion [N]-C--CA-[N] |==|  0.03355
USER: genes 8 Torsion [N]-CA--C-[N] |==|  0.09280
USER: genes 9 Torsion [C]-N--CA-[CB] |==|  0.83787
USER: genes 10 Torsion [N]-CA--C-[N] |==|  0.03076
USER: genes 11 Torsion [C]-N--CA-[CB] |==|  0.84324
USER: genes 12 Torsion [N]-CA--C-[N] |==|  0.40202
USER: genes 13 Torsion [C]-N--CA-[C] |==|  0.77937
USER: genes 14 Torsion [N]-CA--C-[O] |==|  0.97843
ROOT
ATOM      1  CA  ALA E  11       0.754  19.462   2.479  1.00 85.35 LIG 0.17  C 
ATOM      2  CB  ALA E  11       0.421  18.718   3.774  1.00 80.46 LIG 0.04  C 
ENDROOT
BRANCH 1 3
ATOM      3  N   ALA E  11       1.163  20.830   2.777  1.00 87.15 LIG-0.35  N 
ATOM      4  C   ALA E  10       2.383  21.082   3.258  1.00 62.15 LIG 0.24  C 
ATOM      5 O    ALA E  10       3.271  20.229   3.279  1.00 65.72 LIG-0.27  OA
ATOM      6 H    ALA E  11       0.567  21.430   2.619  1.00 87.15 LIG 0.16  HD
BRANCH 4 7
ATOM      7  CA  ALA E  10       2.655  22.485   3.788  1.00 66.45 LIG 0.17  C 
ATOM      8  CB  ALA E  10       2.203  23.533   2.772  1.00 58.63 LIG 0.04  C 
BRANCH 7 9
ATOM      9  N   ALA E  10       4.061  22.683   4.106  1.00 75.43 LIG-0.35  N 
ATOM     10  C   ALA E   9       4.565  22.478   5.321  1.00 82.21 LIG 0.24  C 
ATOM     11 O    ALA E   9       3.883  22.134   6.293  1.00 73.75 LIG-0.27  OA
ATOM     12 H    ALA E  10       4.535  22.945   3.438  1.00 75.43 LIG 0.16  HD
BRANCH 10 13
ATOM     13  CA  ALA E   9       6.061  22.720   5.475  1.00 87.65 LIG 0.17  C 
ATOM     14  CB  ALA E   9       6.863  21.793   4.565  1.00 72.21 LIG 0.04  C 
BRANCH 13 15
ATOM     15  N   ALA E   9       6.405  22.520   6.877  1.00 84.24 LIG-0.35  N 
ATOM     16 H    ALA E   9       6.968  21.884   7.014  1.00 84.24 LIG 0.16  HD
ATOM     17  C   ALA E   8       5.887  23.262   7.847  1.00 61.40 LIG 0.26  C 
ATOM     18 O    ALA E   8       5.158  24.227   7.627  1.00 66.21 LIG-0.27  OA
BRANCH 17 19
ATOM     19  CA  ALA E   8       6.271  22.876   9.272  1.00 67.03 LIG 0.40  C 
ATOM     20  N   ALA E   8       7.400  21.898   9.266  1.00 60.26 LIG 0.61  N 
ATOM     21  CB  ALA E   8       6.644  24.113  10.082  1.00 64.64 LIG 0.06  C 
ENDBRANCH 17 19
ENDBRANCH 13 15
ENDBRANCH 10 13
ENDBRANCH 7 9
ENDBRANCH 4 7
ENDBRANCH 1 3
BRANCH 1 22
ATOM     22  C   ALA E  11      -0.437  19.428   1.530  1.00 81.78 LIG 0.24  C 
ATOM     23  N   ALA E  12      -0.520  20.390   0.612  1.00 82.91 LIG-0.35  N 
ATOM     24 H    ALA E  12       0.102  20.962   0.444  1.00 82.91 LIG 0.16  HD
ATOM     25 O    ALA E  11      -1.295  18.542   1.627  1.00 89.30 LIG-0.27  OA
BRANCH 23 26
ATOM     26  CA  ALA E  12      -1.724  20.532  -0.195  1.00 61.10 LIG 0.17  C 
ATOM     27  CB  ALA E  12      -2.012  19.241  -0.976  1.00 65.27 LIG 0.04  C 
BRANCH 26 28
ATOM     28  C   ALA E  12      -2.911  20.900   0.680  1.00 54.59 LIG 0.24  C 
ATOM     29  N   ALA E  13      -2.599  21.245   1.930  1.00 64.78 LIG-0.35  N 
ATOM     30 H    ALA E  13      -1.792  21.322   2.217  1.00 64.78 LIG 0.16  HD
ATOM     31 O    ALA E  12      -4.061  20.909   0.233  1.00 69.11 LIG-0.27  OA
BRANCH 29 32
ATOM     32  CA  ALA E  13      -3.617  21.525   2.930  1.00 54.23 LIG 0.17  C 
ATOM     33  CB  ALA E  13      -4.546  22.634   2.433  1.00 56.27 LIG 0.04  C 
BRANCH 32 34
ATOM     34  C   ALA E  13      -4.460  20.306   3.255  1.00 65.29 LIG 0.24  C 
ATOM     35  N   ALA E  14      -4.847  20.206   4.522  1.00 85.74 LIG-0.35  N 
ATOM     36 H    ALA E  14      -4.615  20.762   5.134  1.00 85.74 LIG 0.16  HD
ATOM     37 O    ALA E  13      -4.803  19.509   2.378  1.00 75.52 LIG-0.27  OA
BRANCH 35 38
ATOM     38  CA  ALA E  14      -5.708  19.136   4.994  1.00 94.46 LIG 0.16  C 
ATOM     39  CB  ALA E  14      -5.550  18.962   6.488  1.00106.12 LIG 0.04  C 
BRANCH 38 40
ATOM     40  C   ALA E  14      -7.161  19.430   4.641  1.00 99.07 LIG 0.22  C 
ATOM     41 O    ALA E  14      -7.487  20.518   4.165  1.00120.33 LIG-0.29  OA
ENDBRANCH 38 40
ENDBRANCH 35 38
ENDBRANCH 32 34
ENDBRANCH 29 32
ENDBRANCH 26 28
ENDBRANCH 23 26
ENDBRANCH 1 22
TORSDOF 13
ENDMDL
MODEL 17
USER: ADFR SOLUTION from run 67
USER: SCORE 5.813699 LL:  -2.561 LR:  -4.593 RR:   0.000 FEB:  -0.715
USER: RMSD 4.932877
USER: SEED 66
USER: STATUS searching
USER: GENES 15
USER: genes 0 Translation |==|  0.66224 0.35836 0.60483
USER: genes 1 Rotation |==|  0.80529 0.64469 0.58491 0.85869
USER: genes 2 Torsion [CB]-CA--N-[C] |==|  0.13445
USER: genes 3 Torsion [N]-C--CA-[N] |==|  0.05079
USER: genes 4 Torsion [C]-CA--N-[C] |==|  0.63354
USER: genes 5 Torsion [N]-C--CA-[N] |==|  0.51608
USER: genes 6 Torsion [C]-CA--N-[C] |==|  0.77289
USER: genes 7 Torsion [N]-C--CA-[N] |==|  0.31399
USER: genes 8 Torsion [N]-CA--C-[N] |==|  0.10043
USER: genes 9 Torsion [C]-N--CA-[CB] |==|  0.85254
USER: genes 10 Torsion [N]-CA--C-[N] |==|  0.39304
USER: genes 11 Torsion [C]-N--CA-[CB] |==|  0.15316
USER: genes 12 Torsion [N]-CA--C-[N] |==|  0.06948
USER: genes 13 Torsion [C]-N--CA-[C] |==|  0.54624
USER: genes 14 Torsion [N]-CA--C-[O] |==|  0.95052
ROOT
ATOM      1  CA  ALA E  11       2.430  21.080   3.081  1.00 85.35 LIG 0.17  C 
ATOM      2  CB  ALA E  11       2.513  19.759   3.849  1.00 80.46 LIG 0.04  C 
ENDROOT
BRANCH 1 3
ATOM      3  N   ALA E  11       3.031  22.154   3.864  1.00 87.15 LIG-0.35  N 
ATOM      4  C   ALA E  10       4.232  21.992   4.424  1.00 62.15 LIG 0.24  C 
ATOM      5 O    ALA E  10       4.965  21.041   4.148  1.00 65.72 LIG-0.27  OA
ATOM      6 H    ALA E  11       2.556  22.869   3.926  1.00 87.15 LIG 0.16  HD
BRANCH 4 7
ATOM      7  CA  ALA E  10       4.686  23.041   5.433  1.00 66.45 LIG 0.17  C 
ATOM      8  CB  ALA E  10       5.424  22.376   6.594  1.00 58.63 LIG 0.04  C 
BRANCH 7 9
ATOM      9  N   ALA E  10       3.570  23.824   5.942  1.00 75.43 LIG-0.35  N 
ATOM     10  C   ALA E   9       3.588  25.154   6.008  1.00 82.21 LIG 0.24  C 
ATOM     11 O    ALA E   9       4.561  25.840   5.675  1.00 73.75 LIG-0.27  OA
ATOM     12 H    ALA E  10       2.900  23.349   6.197  1.00 75.43 LIG 0.16  HD
BRANCH 10 13
ATOM     13  CA  ALA E   9       2.329  25.814   6.555  1.00 87.65 LIG 0.17  C 
ATOM     14  CB  ALA E   9       1.086  25.315   5.822  1.00 72.21 LIG 0.04  C 
BRANCH 13 15
ATOM     15  N   ALA E   9       2.485  27.256   6.419  1.00 84.24 LIG-0.35  N 
ATOM     16 H    ALA E   9       2.098  27.588   5.726  1.00 84.24 LIG 0.16  HD
ATOM     17  C   ALA E   8       3.167  27.981   7.296  1.00 61.40 LIG 0.26  C 
ATOM     18 O    ALA E   8       3.634  27.507   8.329  1.00 66.21 LIG-0.27  OA
BRANCH 17 19
ATOM     19  CA  ALA E   8       3.321  29.464   6.973  1.00 67.03 LIG 0.40  C 
ATOM     20  N   ALA E   8       2.572  30.298   7.960  1.00 60.26 LIG 0.61  N 
ATOM     21  CB  ALA E   8       4.793  29.860   6.950  1.00 64.64 LIG 0.06  C 
ENDBRANCH 17 19
ENDBRANCH 13 15
ENDBRANCH 10 13
ENDBRANCH 7 9
ENDBRANCH 4 7
ENDBRANCH 1 3
BRANCH 1 22
ATOM     22  C   ALA E  11       0.983  21.391   2.722  1.00 81.78 LIG 0.24  C 
ATOM     23  N   ALA E  12       0.676  22.659   2.452  1.00 82.91 LIG-0.35  N 
ATOM     24 H    ALA E  12       1.250  23.292   2.357  1.00 82.91 LIG 0.16  HD
ATOM     25 O    ALA E  11       0.132  20.493   2.699  1.00 89.30 LIG-0.27  OA
BRANCH 23 26
ATOM     26  CA  ALA E  12      -0.716  23.058   2.294  1.00 61.10 LIG 0.17  C 
ATOM     27  CB  ALA E  12      -1.424  22.171   1.259  1.00 65.27 LIG 0.04  C 
BRANCH 26 28
ATOM     28  C   ALA E  12      -1.442  23.000   3.629  1.00 54.59 LIG 0.24  C 
ATOM     29  N   ALA E  13      -2.315  23.987   3.833  1.00 64.78 LIG-0.35  N 
ATOM     30 H    ALA E  13      -2.513  24.580   3.243  1.00 64.78 LIG 0.16  HD
ATOM     31 O    ALA E  12      -1.248  22.080   4.427  1.00 69.11 LIG-0.27  OA
BRANCH 29 32
ATOM     32  CA  ALA E  13      -3.019  24.144   5.096  1.00 54.23 LIG 0.17  C 
ATOM     33  CB  ALA E  13      -2.016  24.228   6.246  1.00 56.27 LIG 0.04  C 
BRANCH 32 34
ATOM     34  C   ALA E  13      -3.884  25.392   5.125  1.00 65.29 LIG 0.24  C 
ATOM     35  N   ALA E  14      -4.283  25.833   3.937  1.00 85.74 LIG-0.35  N 
ATOM     36 H    ALA E  14      -4.047  25.472   3.193  1.00 85.74 LIG 0.16  HD
ATOM     37 O    ALA E  13      -4.231  25.908   6.190  1.00 75.52 LIG-0.27  OA
BRANCH 35 38
ATOM     38  CA  ALA E  14      -5.164  26.977   3.783  1.00 94.46 LIG 0.16  C 
ATOM     39  CB  ALA E  14      -4.405  28.257   4.051  1.00106.12 LIG 0.04  C 
BRANCH 38 40
ATOM     40  C   ALA E  14      -5.768  26.996   2.384  1.00 99.07 LIG 0.22  C 
ATOM     41 O    ALA E  14      -5.266  26.340   1.471  1.00120.33 LIG-0.29  OA
ENDBRANCH 38 40
ENDBRANCH 35 38
ENDBRANCH 32 34
ENDBRANCH 29 32
ENDBRANCH 26 28
ENDBRANCH 23 26
ENDBRANCH 1 22
TORSDOF 13
ENDMDL
MODEL 18
USER: ADFR SOLUTION from run 91
USER: SCORE 5.192952 LL:  -2.358 LR:  -4.577 RR:   0.000 FEB:  -0.699
USER: RMSD 6.224555
USER: SEED 90
USER: STATUS no improvement in best in 77 clusters for 5 generations
USER: GENES 15
USER: genes 0 Translation |==|  0.63165 0.35882 0.59827
USER: genes 1 Rotation |==|  0.81854 0.65831 0.56735 0.84487
USER: genes 2 Torsion [CB]-CA--N-[C] |==|  0.15487
USER: genes 3 Torsion [N]-C--CA-[N] |==|  0.01195
USER: genes 4 Torsion [C]-CA--N-[C] |==|  0.57871
USER: genes 5 Torsion [N]-C--CA-[N] |==|  0.45671
USER: genes 6 Torsion [C]-CA--N-[C] |==|  0.55558
USER: genes 7 Torsion [N]-C--CA-[N] |==|  0.49072
USER: genes 8 Torsion [N]-CA--C-[N] |==|  0.98910
USER: genes 9 Torsion [C]-N--CA-[CB] |==|  0.84666
USER: genes 10 Torsion [N]-CA--C-[N] |==|  0.37730
USER: genes 11 Torsion [C]-N--CA-[CB] |==|  0.52778
USER: genes 12 Torsion [N]-CA--C-[N] |==|  0.41669
USER: genes 13 Torsion [C]-N--CA-[C] |==|  0.77282
USER: genes 14 Torsion [N]-CA--C-[O] |==|  0.97362
ROOT
ATOM      1  CA  ALA E  11       1.742  21.088   2.963  1.00 85.35 LIG 0.17  C 
ATOM      2  CB  ALA E  11       1.872  19.734   3.663  1.00 80.46 LIG 0.04  C 
ENDROOT
BRANCH 1 3
ATOM      3  N   ALA E  11       2.449  22.115   3.720  1.00 87.15 LIG-0.35  N 
ATOM      4  C   ALA E  10       3.743  21.966   4.014  1.00 62.15 LIG 0.24  C 
ATOM      5 O    ALA E  10       4.439  21.087   3.504  1.00 65.72 LIG-0.27  OA
ATOM      6 H    ALA E  11       1.972  22.793   3.947  1.00 87.15 LIG 0.16  HD
BRANCH 4 7
ATOM      7  CA  ALA E  10       4.353  22.938   5.019  1.00 66.45 LIG 0.17  C 
ATOM      8  CB  ALA E  10       5.050  22.172   6.142  1.00 58.63 LIG 0.04  C 
BRANCH 7 9
ATOM      9  N   ALA E  10       3.356  23.837   5.580  1.00 75.43 LIG-0.35  N 
ATOM     10  C   ALA E   9       3.646  25.062   6.014  1.00 82.21 LIG 0.24  C 
ATOM     11 O    ALA E   9       4.789  25.532   6.012  1.00 73.75 LIG-0.27  OA
ATOM     12 H    ALA E  10       2.563  23.504   5.605  1.00 75.43 LIG 0.16  HD
BRANCH 10 13
ATOM     13  CA  ALA E   9       2.478  25.873   6.559  1.00 87.65 LIG 0.17  C 
ATOM     14  CB  ALA E   9       1.567  26.349   5.430  1.00 72.21 LIG 0.04  C 
BRANCH 13 15
ATOM     15  N   ALA E   9       3.025  26.995   7.311  1.00 84.24 LIG-0.35  N 
ATOM     16 H    ALA E   9       3.841  27.186   7.115  1.00 84.24 LIG 0.16  HD
ATOM     17  C   ALA E   8       2.315  27.655   8.216  1.00 61.40 LIG 0.26  C 
ATOM     18 O    ALA E   8       1.123  27.431   8.416  1.00 66.21 LIG-0.27  OA
BRANCH 17 19
ATOM     19  CA  ALA E   8       3.049  28.747   8.987  1.00 67.03 LIG 0.40  C 
ATOM     20  N   ALA E   8       2.115  29.459   9.910  1.00 60.26 LIG 0.61  N 
ATOM     21  CB  ALA E   8       4.221  28.159   9.767  1.00 64.64 LIG 0.06  C 
ENDBRANCH 17 19
ENDBRANCH 13 15
ENDBRANCH 10 13
ENDBRANCH 7 9
ENDBRANCH 4 7
ENDBRANCH 1 3
BRANCH 1 22
ATOM     22  C   ALA E  11       0.273  21.445   2.775  1.00 81.78 LIG 0.24  C 
ATOM     23  N   ALA E  12      -0.172  22.551   3.368  1.00 82.91 LIG-0.35  N 
ATOM     24 H    ALA E  12       0.329  23.135   3.755  1.00 82.91 LIG 0.16  HD
ATOM     25 O    ALA E  11      -0.471  20.719   2.104  1.00 89.30 LIG-0.27  OA
BRANCH 23 26
ATOM     26  CA  ALA E  12      -1.598  22.847   3.393  1.00 61.10 LIG 0.17  C 
ATOM     27  CB  ALA E  12      -2.178  22.854   1.971  1.00 65.27 LIG 0.04  C 
BRANCH 26 28
ATOM     28  C   ALA E  12      -2.335  21.842   4.263  1.00 54.59 LIG 0.24  C 
ATOM     29  N   ALA E  13      -3.241  22.373   5.085  1.00 64.78 LIG-0.35  N 
ATOM     30 H    ALA E  13      -3.451  23.207   5.089  1.00 64.78 LIG 0.16  HD
ATOM     31 O    ALA E  12      -2.121  20.631   4.170  1.00 69.11 LIG-0.27  OA
BRANCH 29 32
ATOM     32  CA  ALA E  13      -3.963  21.571   6.059  1.00 54.23 LIG 0.17  C 
ATOM     33  CB  ALA E  13      -5.096  22.392   6.676  1.00 56.27 LIG 0.04  C 
BRANCH 32 34
ATOM     34  C   ALA E  13      -4.561  20.317   5.447  1.00 65.29 LIG 0.24  C 
ATOM     35  N   ALA E  14      -4.670  19.281   6.271  1.00 85.74 LIG-0.35  N 
ATOM     36 H    ALA E  14      -4.393  19.290   7.084  1.00 85.74 LIG 0.16  HD
ATOM     37 O    ALA E  13      -4.968  20.302   4.283  1.00 75.52 LIG-0.27  OA
BRANCH 35 38
ATOM     38  CA  ALA E  14      -5.275  18.023   5.870  1.00 94.46 LIG 0.16  C 
ATOM     39  CB  ALA E  14      -4.755  16.897   6.734  1.00106.12 LIG 0.04  C 
BRANCH 38 40
ATOM     40  C   ALA E  14      -6.794  18.112   5.963  1.00 99.07 LIG 0.22  C 
ATOM     41 O    ALA E  14      -7.337  19.079   6.497  1.00120.33 LIG-0.29  OA
ENDBRANCH 38 40
ENDBRANCH 35 38
ENDBRANCH 32 34
ENDBRANCH 29 32
ENDBRANCH 26 28
ENDBRANCH 23 26
ENDBRANCH 1 22
TORSDOF 13
ENDMDL
MODEL 19
USER: ADFR SOLUTION from run 91
USER: SCORE 4.508215 LL:  -2.523 LR:  -4.568 RR:   0.000 FEB:  -0.690
USER: RMSD 4.249744
USER: SEED 90
USER: STATUS no improvement in best in 77 clusters for 5 generations
USER: GENES 15
USER: genes 0 Translation |==|  0.63205 0.35520 0.60386
USER: genes 1 Rotation |==|  0.81819 0.66648 0.56309 0.84214
USER: genes 2 Torsion [CB]-CA--N-[C] |==|  0.14567
USER: genes 3 Torsion [N]-C--CA-[N] |==|  0.02644
USER: genes 4 Torsion [C]-CA--N-[C] |==|  0.57778
USER: genes 5 Torsion [N]-C--CA-[N] |==|  0.46676
USER: genes 6 Torsion [C]-CA--N-[C] |==|  0.55525
USER: genes 7 Torsion [N]-C--CA-[N] |==|  0.47836
USER: genes 8 Torsion [N]-CA--C-[N] |==|  0.54208
USER: genes 9 Torsion [C]-N--CA-[CB] |==|  0.84066
USER: genes 10 Torsion [N]-CA--C-[N] |==|  0.09386
USER: genes 11 Torsion [C]-N--CA-[CB] |==|  0.83275
USER: genes 12 Torsion [N]-CA--C-[N] |==|  0.41674
USER: genes 13 Torsion [C]-N--CA-[C] |==|  0.77263
USER: genes 14 Torsion [N]-CA--C-[O] |==|  0.97409
ROOT
ATOM      1  CA  ALA E  11       1.751  21.023   3.063  1.00 85.35 LIG 0.17  C 
ATOM      2  CB  ALA E  11       1.922  19.673   3.764  1.00 80.46 LIG 0.04  C 
ENDROOT
BRANCH 1 3
ATOM      3  N   ALA E  11       2.474  22.060   3.790  1.00 87.15 LIG-0.35  N 
ATOM      4  C   ALA E  10       3.764  21.898   4.095  1.00 62.15 LIG 0.24  C 
ATOM      5 O    ALA E  10       4.445  20.990   3.616  1.00 65.72 LIG-0.27  OA
ATOM      6 H    ALA E  11       2.008  22.754   3.993  1.00 87.15 LIG 0.16  HD
BRANCH 4 7
ATOM      7  CA  ALA E  10       4.388  22.890   5.071  1.00 66.45 LIG 0.17  C 
ATOM      8  CB  ALA E  10       5.175  22.149   6.150  1.00 58.63 LIG 0.04  C 
BRANCH 7 9
ATOM      9  N   ALA E  10       3.387  23.746   5.690  1.00 75.43 LIG-0.35  N 
ATOM     10  C   ALA E   9       3.652  24.977   6.121  1.00 82.21 LIG 0.24  C 
ATOM     11 O    ALA E   9       4.775  25.491   6.065  1.00 73.75 LIG-0.27  OA
ATOM     12 H    ALA E  10       2.610  23.382   5.753  1.00 75.43 LIG 0.16  HD
BRANCH 10 13
ATOM     13  CA  ALA E   9       2.484  25.739   6.732  1.00 87.65 LIG 0.17  C 
ATOM     14  CB  ALA E   9       1.454  26.110   5.667  1.00 72.21 LIG 0.04  C 
BRANCH 13 15
ATOM     15  N   ALA E   9       3.018  26.923   7.393  1.00 84.24 LIG-0.35  N 
ATOM     16 H    ALA E   9       3.801  27.153   7.123  1.00 84.24 LIG 0.16  HD
ATOM     17  C   ALA E   8       2.342  27.577   8.328  1.00 61.40 LIG 0.26  C 
ATOM     18 O    ALA E   8       1.187  27.292   8.635  1.00 66.21 LIG-0.27  OA
BRANCH 17 19
ATOM     19  CA  ALA E   8       3.066  28.743   8.994  1.00 67.03 LIG 0.40  C 
ATOM     20  N   ALA E   8       2.136  29.503   9.882  1.00 60.26 LIG 0.61  N 
ATOM     21  CB  ALA E   8       4.270  28.246   9.786  1.00 64.64 LIG 0.06  C 
ENDBRANCH 17 19
ENDBRANCH 13 15
ENDBRANCH 10 13
ENDBRANCH 7 9
ENDBRANCH 4 7
ENDBRANCH 1 3
BRANCH 1 22
ATOM     22  C   ALA E  11       0.272  21.363   2.928  1.00 81.78 LIG 0.24  C 
ATOM     23  N   ALA E  12      -0.554  20.382   2.568  1.00 82.91 LIG-0.35  N 
ATOM     24 H    ALA E  12      -0.335  19.552   2.514  1.00 82.91 LIG 0.16  HD
ATOM     25 O    ALA E  11      -0.130  22.514   3.135  1.00 89.30 LIG-0.27  OA
BRANCH 23 26
ATOM     26  CA  ALA E  12      -1.940  20.678   2.231  1.00 61.10 LIG 0.17  C 
ATOM     27  CB  ALA E  12      -2.647  21.381   3.400  1.00 65.27 LIG 0.04  C 
BRANCH 26 28
ATOM     28  C   ALA E  12      -2.013  21.531   0.975  1.00 54.59 LIG 0.24  C 
ATOM     29  N   ALA E  13      -1.063  21.280   0.074  1.00 64.78 LIG-0.35  N 
ATOM     30 H    ALA E  13      -0.486  20.647   0.151  1.00 64.78 LIG 0.16  HD
ATOM     31 O    ALA E  12      -2.914  22.357   0.809  1.00 69.11 LIG-0.27  OA
BRANCH 29 32
ATOM     32  CA  ALA E  13      -0.920  22.073  -1.137  1.00 54.23 LIG 0.17  C 
ATOM     33  CB  ALA E  13      -2.197  21.983  -1.973  1.00 56.27 LIG 0.04  C 
BRANCH 32 34
ATOM     34  C   ALA E  13      -0.644  23.536  -0.843  1.00 65.29 LIG 0.24  C 
ATOM     35  N   ALA E  14       0.081  24.171  -1.756  1.00 85.74 LIG-0.35  N 
ATOM     36 H    ALA E  14       0.410  23.787  -2.451  1.00 85.74 LIG 0.16  HD
ATOM     37 O    ALA E  13      -1.121  24.092   0.149  1.00 75.52 LIG-0.27  OA
BRANCH 35 38
ATOM     38  CA  ALA E  14       0.388  25.587  -1.664  1.00 94.46 LIG 0.16  C 
ATOM     39  CB  ALA E  14       1.646  25.899  -2.443  1.00106.12 LIG 0.04  C 
BRANCH 38 40
ATOM     40  C   ALA E  14      -0.781  26.418  -2.182  1.00 99.07 LIG 0.22  C 
ATOM     41 O    ALA E  14      -1.729  25.882  -2.755  1.00120.33 LIG-0.29  OA
ENDBRANCH 38 40
ENDBRANCH 35 38
ENDBRANCH 32 34
ENDBRANCH 29 32
ENDBRANCH 26 28
ENDBRANCH 23 26
ENDBRANCH 1 22
TORSDOF 13
ENDMDL
MODEL 20
USER: ADFR SOLUTION from run 10
USER: SCORE 5.690885 LL:  -2.229 LR:  -4.570 RR:   0.000 FEB:  -0.692
USER: RMSD 3.765824
USER: SEED 607314
USER: STATUS searching
USER: GENES 15
USER: genes 0 Translation |==|  0.58353 0.27383 0.58766
USER: genes 1 Rotation |==|  0.72517 0.75674 0.53755 0.86328
USER: genes 2 Torsion [CB]-CA--N-[C] |==|  0.12803
USER: genes 3 Torsion [N]-C--CA-[N] |==|  0.46348
USER: genes 4 Torsion [C]-CA--N-[C] |==|  0.79459
USER: genes 5 Torsion [N]-C--CA-[N] |==|  0.46004
USER: genes 6 Torsion [C]-CA--N-[C] |==|  0.84343
USER: genes 7 Torsion [N]-C--CA-[N] |==|  0.06186
USER: genes 8 Torsion [N]-CA--C-[N] |==|  0.13635
USER: genes 9 Torsion [C]-N--CA-[CB] |==|  0.18775
USER: genes 10 Torsion [N]-CA--C-[N] |==|  0.10871
USER: genes 11 Torsion [C]-N--CA-[CB] |==|  0.51749
USER: genes 12 Torsion [N]-CA--C-[N] |==|  0.43337
USER: genes 13 Torsion [C]-N--CA-[C] |==|  0.76939
USER: genes 14 Torsion [N]-CA--C-[O] |==|  0.97254
ROOT
ATOM      1  CA  ALA E  11       0.660  19.558   2.772  1.00 85.35 LIG 0.17  C 
ATOM      2  CB  ALA E  11       1.359  18.682   3.813  1.00 80.46 LIG 0.04  C 
ENDROOT
BRANCH 1 3
ATOM      3  N   ALA E  11       1.142  20.931   2.866  1.00 87.15 LIG-0.35  N 
ATOM      4  C   ALA E  10       2.450  21.183   2.959  1.00 62.15 LIG 0.24  C 
ATOM      5 O    ALA E  10       3.303  20.316   2.767  1.00 65.72 LIG-0.27  OA
ATOM      6 H    ALA E  11       0.528  21.534   2.855  1.00 87.15 LIG 0.16  HD
BRANCH 4 7
ATOM      7  CA  ALA E  10       2.870  22.606   3.312  1.00 66.45 LIG 0.17  C 
ATOM      8  CB  ALA E  10       2.591  23.548   2.142  1.00 58.63 LIG 0.04  C 
BRANCH 7 9
ATOM      9  N   ALA E  10       4.276  22.682   3.681  1.00 75.43 LIG-0.35  N 
ATOM     10  C   ALA E   9       4.745  22.239   4.845  1.00 82.21 LIG 0.24  C 
ATOM     11 O    ALA E   9       4.029  21.754   5.729  1.00 73.75 LIG-0.27  OA
ATOM     12 H    ALA E  10       4.774  23.041   3.078  1.00 75.43 LIG 0.16  HD
BRANCH 10 13
ATOM     13  CA  ALA E   9       6.245  22.385   5.062  1.00 87.65 LIG 0.17  C 
ATOM     14  CB  ALA E   9       7.023  21.398   4.194  1.00 72.21 LIG 0.04  C 
BRANCH 13 15
ATOM     15  N   ALA E   9       6.516  22.178   6.478  1.00 84.24 LIG-0.35  N 
ATOM     16 H    ALA E   9       7.083  21.552   6.640  1.00 84.24 LIG 0.16  HD
ATOM     17  C   ALA E   8       5.931  22.899   7.425  1.00 61.40 LIG 0.26  C 
ATOM     18 O    ALA E   8       5.195  23.851   7.174  1.00 66.21 LIG-0.27  OA
BRANCH 17 19
ATOM     19  CA  ALA E   8       6.244  22.506   8.865  1.00 67.03 LIG 0.40  C 
ATOM     20  N   ALA E   8       7.532  21.754   8.938  1.00 60.26 LIG 0.61  N 
ATOM     21  CB  ALA E   8       6.297  23.740   9.759  1.00 64.64 LIG 0.06  C 
ENDBRANCH 17 19
ENDBRANCH 13 15
ENDBRANCH 10 13
ENDBRANCH 7 9
ENDBRANCH 4 7
ENDBRANCH 1 3
BRANCH 1 22
ATOM     22  C   ALA E  11      -0.852  19.483   2.950  1.00 81.78 LIG 0.24  C 
ATOM     23  N   ALA E  12      -1.598  20.320   2.231  1.00 82.91 LIG-0.35  N 
ATOM     24 H    ALA E  12      -1.301  20.819   1.596  1.00 82.91 LIG 0.16  HD
ATOM     25 O    ALA E  11      -1.353  18.680   3.746  1.00 89.30 LIG-0.27  OA
BRANCH 23 26
ATOM     26  CA  ALA E  12      -3.026  20.439   2.492  1.00 61.10 LIG 0.17  C 
ATOM     27  CB  ALA E  12      -3.277  21.080   3.866  1.00 65.27 LIG 0.04  C 
BRANCH 26 28
ATOM     28  C   ALA E  12      -3.703  21.247   1.397  1.00 54.59 LIG 0.24  C 
ATOM     29  N   ALA E  13      -3.252  21.007   0.166  1.00 64.78 LIG-0.35  N 
ATOM     30 H    ALA E  13      -2.670  20.401  -0.020  1.00 64.78 LIG 0.16  HD
ATOM     31 O    ALA E  12      -4.624  22.029   1.650  1.00 69.11 LIG-0.27  OA
BRANCH 29 32
ATOM     32  CA  ALA E  13      -3.713  21.765  -0.986  1.00 54.23 LIG 0.17  C 
ATOM     33  CB  ALA E  13      -3.140  21.164  -2.270  1.00 56.27 LIG 0.04  C 
BRANCH 32 34
ATOM     34  C   ALA E  13      -5.227  21.781  -1.100  1.00 65.29 LIG 0.24  C 
ATOM     35  N   ALA E  14      -5.734  22.805  -1.776  1.00 85.74 LIG-0.35  N 
ATOM     36 H    ALA E  14      -5.257  23.442  -2.100  1.00 85.74 LIG 0.16  HD
ATOM     37 O    ALA E  13      -5.914  20.864  -0.643  1.00 75.52 LIG-0.27  OA
BRANCH 35 38
ATOM     38  CA  ALA E  14      -7.157  22.945  -2.033  1.00 94.46 LIG 0.16  C 
ATOM     39  CB  ALA E  14      -7.508  24.401  -2.237  1.00106.12 LIG 0.04  C 
BRANCH 38 40
ATOM     40  C   ALA E  14      -7.558  22.121  -3.252  1.00 99.07 LIG 0.22  C 
ATOM     41 O    ALA E  14      -6.704  21.608  -3.975  1.00120.33 LIG-0.29  OA
ENDBRANCH 38 40
ENDBRANCH 35 38
ENDBRANCH 32 34
ENDBRANCH 29 32
ENDBRANCH 26 28
ENDBRANCH 23 26
ENDBRANCH 1 22
TORSDOF 13
ENDMDL
MODEL 21
USER: ADFR SOLUTION from run 91
USER: SCORE 4.192149 LL:  -2.628 LR:  -4.564 RR:   0.000 FEB:  -0.686
USER: RMSD 3.700415
USER: SEED 90
USER: STATUS no improvement in best in 77 clusters for 5 generations
USER: GENES 15
USER: genes 0 Translation |==|  0.63205 0.35520 0.60386
USER: genes 1 Rotation |==|  0.81819 0.66648 0.56309 0.84214
USER: genes 2 Torsion [CB]-CA--N-[C] |==|  0.14567
USER: genes 3 Torsion [N]-C--CA-[N] |==|  0.02644
USER: genes 4 Torsion [C]-CA--N-[C] |==|  0.57778
USER: genes 5 Torsion [N]-C--CA-[N] |==|  0.46676
USER: genes 6 Torsion [C]-CA--N-[C] |==|  0.55525
USER: genes 7 Torsion [N]-C--CA-[N] |==|  0.45649
USER: genes 8 Torsion [N]-CA--C-[N] |==|  0.08525
USER: genes 9 Torsion [C]-N--CA-[CB] |==|  0.39550
USER: genes 10 Torsion [N]-CA--C-[N] |==|  0.10402
USER: genes 11 Torsion [C]-N--CA-[CB] |==|  0.51667
USER: genes 12 Torsion [N]-CA--C-[N] |==|  0.41684
USER: genes 13 Torsion [C]-N--CA-[C] |==|  0.77061
USER: genes 14 Torsion [N]-CA--C-[O] |==|  0.12778
ROOT
ATOM      1  CA  ALA E  11       1.751  21.023   3.063  1.00 85.35 LIG 0.17  C 
ATOM      2  CB  ALA E  11       1.922  19.673   3.764  1.00 80.46 LIG 0.04  C 
ENDROOT
BRANCH 1 3
ATOM      3  N   ALA E  11       2.474  22.060   3.790  1.00 87.15 LIG-0.35  N 
ATOM      4  C   ALA E  10       3.764  21.898   4.095  1.00 62.15 LIG 0.24  C 
ATOM      5 O    ALA E  10       4.445  20.990   3.616  1.00 65.72 LIG-0.27  OA
ATOM      6 H    ALA E  11       2.008  22.754   3.993  1.00 87.15 LIG 0.16  HD
BRANCH 4 7
ATOM      7  CA  ALA E  10       4.388  22.890   5.071  1.00 66.45 LIG 0.17  C 
ATOM      8  CB  ALA E  10       5.175  22.149   6.150  1.00 58.63 LIG 0.04  C 
BRANCH 7 9
ATOM      9  N   ALA E  10       3.387  23.746   5.690  1.00 75.43 LIG-0.35  N 
ATOM     10  C   ALA E   9       3.652  24.977   6.121  1.00 82.21 LIG 0.24  C 
ATOM     11 O    ALA E   9       4.775  25.491   6.065  1.00 73.75 LIG-0.27  OA
ATOM     12 H    ALA E  10       2.610  23.382   5.753  1.00 75.43 LIG 0.16  HD
BRANCH 10 13
ATOM     13  CA  ALA E   9       2.484  25.739   6.732  1.00 87.65 LIG 0.17  C 
ATOM     14  CB  ALA E   9       1.454  26.110   5.667  1.00 72.21 LIG 0.04  C 
BRANCH 13 15
ATOM     15  N   ALA E   9       3.018  26.923   7.393  1.00 84.24 LIG-0.35  N 
ATOM     16 H    ALA E   9       3.801  27.153   7.123  1.00 84.24 LIG 0.16  HD
ATOM     17  C   ALA E   8       2.342  27.577   8.328  1.00 61.40 LIG 0.26  C 
ATOM     18 O    ALA E   8       1.187  27.292   8.635  1.00 66.21 LIG-0.27  OA
BRANCH 17 19
ATOM     19  CA  ALA E   8       3.066  28.743   8.994  1.00 67.03 LIG 0.40  C 
ATOM     20  N   ALA E   8       2.100  29.613   9.729  1.00 60.26 LIG 0.61  N 
ATOM     21  CB  ALA E   8       4.149  28.234   9.939  1.00 64.64 LIG 0.06  C 
ENDBRANCH 17 19
ENDBRANCH 13 15
ENDBRANCH 10 13
ENDBRANCH 7 9
ENDBRANCH 4 7
ENDBRANCH 1 3
BRANCH 1 22
ATOM     22  C   ALA E  11       0.272  21.363   2.928  1.00 81.78 LIG 0.24  C 
ATOM     23  N   ALA E  12      -0.059  22.651   2.863  1.00 82.91 LIG-0.35  N 
ATOM     24 H    ALA E  12       0.503  23.298   2.780  1.00 82.91 LIG 0.16  HD
ATOM     25 O    ALA E  11      -0.580  20.467   2.894  1.00 89.30 LIG-0.27  OA
BRANCH 23 26
ATOM     26  CA  ALA E  12      -1.457  23.053   2.929  1.00 61.10 LIG 0.17  C 
ATOM     27  CB  ALA E  12      -1.613  24.354   3.732  1.00 65.27 LIG 0.04  C 
BRANCH 26 28
ATOM     28  C   ALA E  12      -2.031  23.220   1.532  1.00 54.59 LIG 0.24  C 
ATOM     29  N   ALA E  13      -1.596  22.330   0.639  1.00 64.78 LIG-0.35  N 
ATOM     30 H    ALA E  13      -1.083  21.668   0.836  1.00 64.78 LIG 0.16  HD
ATOM     31 O    ALA E  12      -2.864  24.095   1.278  1.00 69.11 LIG-0.27  OA
BRANCH 29 32
ATOM     32  CA  ALA E  13      -1.961  22.405  -0.766  1.00 54.23 LIG 0.17  C 
ATOM     33  CB  ALA E  13      -1.438  21.175  -1.508  1.00 56.27 LIG 0.04  C 
BRANCH 32 34
ATOM     34  C   ALA E  13      -3.464  22.484  -0.971  1.00 65.29 LIG 0.24  C 
ATOM     35  N   ALA E  14      -3.855  23.147  -2.053  1.00 85.74 LIG-0.35  N 
ATOM     36 H    ALA E  14      -3.311  23.542  -2.589  1.00 85.74 LIG 0.16  HD
ATOM     37 O    ALA E  13      -4.246  21.911  -0.208  1.00 75.52 LIG-0.27  OA
BRANCH 35 38
ATOM     38  CA  ALA E  14      -5.250  23.268  -2.434  1.00 94.46 LIG 0.16  C 
ATOM     39  CB  ALA E  14      -5.454  24.507  -3.276  1.00106.12 LIG 0.04  C 
BRANCH 38 40
ATOM     40  C   ALA E  14      -5.702  22.025  -3.192  1.00 99.07 LIG 0.22  C 
ATOM     41 O    ALA E  14      -5.423  20.899  -2.780  1.00120.33 LIG-0.29  OA
ENDBRANCH 38 40
ENDBRANCH 35 38
ENDBRANCH 32 34
ENDBRANCH 29 32
ENDBRANCH 26 28
ENDBRANCH 23 26
ENDBRANCH 1 22
TORSDOF 13
ENDMDL
MODEL 22
USER: ADFR SOLUTION from run 10
USER: SCORE 5.921550 LL:  -2.172 LR:  -4.563 RR:   0.000 FEB:  -0.685
USER: RMSD 3.986193
USER: SEED 607314
USER: STATUS searching
USER: GENES 15
USER: genes 0 Translation |==|  0.58353 0.27383 0.58766
USER: genes 1 Rotation |==|  0.72517 0.75674 0.53755 0.86328
USER: genes 2 Torsion [CB]-CA--N-[C] |==|  0.12803
USER: genes 3 Torsion [N]-C--CA-[N] |==|  0.46348
USER: genes 4 Torsion [C]-CA--N-[C] |==|  0.79459
USER: genes 5 Torsion [N]-C--CA-[N] |==|  0.46004
USER: genes 6 Torsion [C]-CA--N-[C] |==|  0.84343
USER: genes 7 Torsion [N]-C--CA-[N] |==|  0.06186
USER: genes 8 Torsion [N]-CA--C-[N] |==|  0.11255
USER: genes 9 Torsion [C]-N--CA-[CB] |==|  0.17159
USER: genes 10 Torsion [N]-CA--C-[N] |==|  0.10917
USER: genes 11 Torsion [C]-N--CA-[CB] |==|  0.84322
USER: genes 12 Torsion [N]-CA--C-[N] |==|  0.38987
USER: genes 13 Torsion [C]-N--CA-[C] |==|  0.77039
USER: genes 14 Torsion [N]-CA--C-[O] |==|  0.97281
ROOT
ATOM      1  CA  ALA E  11       0.660  19.558   2.772  1.00 85.35 LIG 0.17  C 
ATOM      2  CB  ALA E  11       1.359  18.682   3.813  1.00 80.46 LIG 0.04  C 
ENDROOT
BRANCH 1 3
ATOM      3  N   ALA E  11       1.142  20.931   2.866  1.00 87.15 LIG-0.35  N 
ATOM      4  C   ALA E  10       2.450  21.183   2.959  1.00 62.15 LIG 0.24  C 
ATOM      5 O    ALA E  10       3.303  20.316   2.767  1.00 65.72 LIG-0.27  OA
ATOM      6 H    ALA E  11       0.528  21.534   2.855  1.00 87.15 LIG 0.16  HD
BRANCH 4 7
ATOM      7  CA  ALA E  10       2.870  22.606   3.312  1.00 66.45 LIG 0.17  C 
ATOM      8  CB  ALA E  10       2.591  23.548   2.142  1.00 58.63 LIG 0.04  C 
BRANCH 7 9
ATOM      9  N   ALA E  10       4.276  22.682   3.681  1.00 75.43 LIG-0.35  N 
ATOM     10  C   ALA E   9       4.745  22.239   4.845  1.00 82.21 LIG 0.24  C 
ATOM     11 O    ALA E   9       4.029  21.754   5.729  1.00 73.75 LIG-0.27  OA
ATOM     12 H    ALA E  10       4.774  23.041   3.078  1.00 75.43 LIG 0.16  HD
BRANCH 10 13
ATOM     13  CA  ALA E   9       6.245  22.385   5.062  1.00 87.65 LIG 0.17  C 
ATOM     14  CB  ALA E   9       7.023  21.398   4.194  1.00 72.21 LIG 0.04  C 
BRANCH 13 15
ATOM     15  N   ALA E   9       6.516  22.178   6.478  1.00 84.24 LIG-0.35  N 
ATOM     16 H    ALA E   9       7.083  21.552   6.640  1.00 84.24 LIG 0.16  HD
ATOM     17  C   ALA E   8       5.931  22.899   7.425  1.00 61.40 LIG 0.26  C 
ATOM     18 O    ALA E   8       5.195  23.851   7.174  1.00 66.21 LIG-0.27  OA
BRANCH 17 19
ATOM     19  CA  ALA E   8       6.244  22.506   8.865  1.00 67.03 LIG 0.40  C 
ATOM     20  N   ALA E   8       7.532  21.754   8.938  1.00 60.26 LIG 0.61  N 
ATOM     21  CB  ALA E   8       6.297  23.740   9.759  1.00 64.64 LIG 0.06  C 
ENDBRANCH 17 19
ENDBRANCH 13 15
ENDBRANCH 10 13
ENDBRANCH 7 9
ENDBRANCH 4 7
ENDBRANCH 1 3
BRANCH 1 22
ATOM     22  C   ALA E  11      -0.852  19.483   2.950  1.00 81.78 LIG 0.24  C 
ATOM     23  N   ALA E  12      -1.587  20.430   2.369  1.00 82.91 LIG-0.35  N 
ATOM     24 H    ALA E  12      -1.285  21.012   1.812  1.00 82.91 LIG 0.16  HD
ATOM     25 O    ALA E  11      -1.363  18.580   3.623  1.00 89.30 LIG-0.27  OA
BRANCH 23 26
ATOM     26  CA  ALA E  12      -3.011  20.532   2.657  1.00 61.10 LIG 0.17  C 
ATOM     27  CB  ALA E  12      -3.245  20.826   4.147  1.00 65.27 LIG 0.04  C 
BRANCH 26 28
ATOM     28  C   ALA E  12      -3.653  21.608   1.796  1.00 54.59 LIG 0.24  C 
ATOM     29  N   ALA E  13      -3.207  21.660   0.541  1.00 64.78 LIG-0.35  N 
ATOM     30 H    ALA E  13      -2.649  21.096   0.209  1.00 64.78 LIG 0.16  HD
ATOM     31 O    ALA E  12      -4.544  22.339   2.238  1.00 69.11 LIG-0.27  OA
BRANCH 29 32
ATOM     32  CA  ALA E  13      -3.635  22.692  -0.388  1.00 54.23 LIG 0.17  C 
ATOM     33  CB  ALA E  13      -5.160  22.686  -0.510  1.00 56.27 LIG 0.04  C 
BRANCH 32 34
ATOM     34  C   ALA E  13      -3.196  24.080   0.045  1.00 65.29 LIG 0.24  C 
ATOM     35  N   ALA E  14      -2.785  24.876  -0.935  1.00 85.74 LIG-0.35  N 
ATOM     36 H    ALA E  14      -2.729  24.628  -1.756  1.00 85.74 LIG 0.16  HD
ATOM     37 O    ALA E  13      -3.282  24.442   1.221  1.00 75.52 LIG-0.27  OA
BRANCH 35 38
ATOM     38  CA  ALA E  14      -2.387  26.254  -0.708  1.00 94.46 LIG 0.16  C 
ATOM     39  CB  ALA E  14      -1.433  26.705  -1.790  1.00106.12 LIG 0.04  C 
BRANCH 38 40
ATOM     40  C   ALA E  14      -3.613  27.159  -0.665  1.00 99.07 LIG 0.22  C 
ATOM     41 O    ALA E  14      -4.723  26.733  -0.988  1.00120.33 LIG-0.29  OA
ENDBRANCH 38 40
ENDBRANCH 35 38
ENDBRANCH 32 34
ENDBRANCH 29 32
ENDBRANCH 26 28
ENDBRANCH 23 26
ENDBRANCH 1 22
TORSDOF 13
ENDMDL
MODEL 23
USER: ADFR SOLUTION from run 139
USER: SCORE 5.110880 LL:  -2.223 LR:  -4.539 RR:   0.000 FEB:  -0.661
USER: RMSD 4.279459
USER: SEED 138
USER: STATUS no improvement in best in 42 clusters for 5 generations
USER: GENES 15
USER: genes 0 Translation |==|  0.58133 0.28604 0.58381
USER: genes 1 Rotation |==|  0.73022 0.73482 0.56381 0.87120
USER: genes 2 Torsion [CB]-CA--N-[C] |==|  0.13113
USER: genes 3 Torsion [N]-C--CA-[N] |==|  0.48826
USER: genes 4 Torsion [C]-CA--N-[C] |==|  0.76960
USER: genes 5 Torsion [N]-C--CA-[N] |==|  0.47777
USER: genes 6 Torsion [C]-CA--N-[C] |==|  0.83032
USER: genes 7 Torsion [N]-C--CA-[N] |==|  0.03505
USER: genes 8 Torsion [N]-CA--C-[N] |==|  0.11632
USER: genes 9 Torsion [C]-N--CA-[CB] |==|  0.18429
USER: genes 10 Torsion [N]-CA--C-[N] |==|  0.56384
USER: genes 11 Torsion [C]-N--CA-[CB] |==|  0.16260
USER: genes 12 Torsion [N]-CA--C-[N] |==|  0.10505
USER: genes 13 Torsion [C]-N--CA-[C] |==|  0.78012
USER: genes 14 Torsion [N]-CA--C-[O] |==|  0.96696
ROOT
ATOM      1  CA  ALA E  11       0.610  19.778   2.703  1.00 85.35 LIG 0.17  C 
ATOM      2  CB  ALA E  11       1.199  18.853   3.770  1.00 80.46 LIG 0.04  C 
ENDROOT
BRANCH 1 3
ATOM      3  N   ALA E  11       1.039  21.152   2.938  1.00 87.15 LIG-0.35  N 
ATOM      4  C   ALA E  10       2.321  21.426   3.188  1.00 62.15 LIG 0.24  C 
ATOM      5 O    ALA E  10       3.216  20.593   3.034  1.00 65.72 LIG-0.27  OA
ATOM      6 H    ALA E  11       0.412  21.740   2.901  1.00 87.15 LIG 0.16  HD
BRANCH 4 7
ATOM      7  CA  ALA E  10       2.659  22.831   3.677  1.00 66.45 LIG 0.17  C 
ATOM      8  CB  ALA E  10       2.269  23.867   2.624  1.00 58.63 LIG 0.04  C 
BRANCH 7 9
ATOM      9  N   ALA E  10       4.070  22.968   4.005  1.00 75.43 LIG-0.35  N 
ATOM     10  C   ALA E   9       4.582  22.594   5.176  1.00 82.21 LIG 0.24  C 
ATOM     11 O    ALA E   9       3.904  22.129   6.099  1.00 73.75 LIG-0.27  OA
ATOM     12 H    ALA E  10       4.541  23.314   3.374  1.00 75.43 LIG 0.16  HD
BRANCH 10 13
ATOM     13  CA  ALA E   9       6.082  22.797   5.346  1.00 87.65 LIG 0.17  C 
ATOM     14  CB  ALA E   9       6.868  21.904   4.388  1.00 72.21 LIG 0.04  C 
BRANCH 13 15
ATOM     15  N   ALA E   9       6.417  22.514   6.735  1.00 84.24 LIG-0.35  N 
ATOM     16 H    ALA E   9       6.970  21.863   6.838  1.00 84.24 LIG 0.16  HD
ATOM     17  C   ALA E   8       5.907  23.208   7.743  1.00 61.40 LIG 0.26  C 
ATOM     18 O    ALA E   8       5.192  24.195   7.575  1.00 66.21 LIG-0.27  OA
BRANCH 17 19
ATOM     19  CA  ALA E   8       6.279  22.738   9.146  1.00 67.03 LIG 0.40  C 
ATOM     20  N   ALA E   8       7.403  21.755   9.091  1.00 60.26 LIG 0.61  N 
ATOM     21  CB  ALA E   8       6.654  23.924  10.028  1.00 64.64 LIG 0.06  C 
ENDBRANCH 17 19
ENDBRANCH 13 15
ENDBRANCH 10 13
ENDBRANCH 7 9
ENDBRANCH 4 7
ENDBRANCH 1 3
BRANCH 1 22
ATOM     22  C   ALA E  11      -0.909  19.662   2.684  1.00 81.78 LIG 0.24  C 
ATOM     23  N   ALA E  12      -1.591  20.613   2.048  1.00 82.91 LIG-0.35  N 
ATOM     24 H    ALA E  12      -1.237  21.223   1.555  1.00 82.91 LIG 0.16  HD
ATOM     25 O    ALA E  11      -1.476  18.721   3.254  1.00 89.30 LIG-0.27  OA
BRANCH 23 26
ATOM     26  CA  ALA E  12      -3.042  20.672   2.156  1.00 61.10 LIG 0.17  C 
ATOM     27  CB  ALA E  12      -3.468  21.014   3.592  1.00 65.27 LIG 0.04  C 
BRANCH 26 28
ATOM     28  C   ALA E  12      -3.609  21.687   1.177  1.00 54.59 LIG 0.24  C 
ATOM     29  N   ALA E  13      -4.809  22.168   1.503  1.00 64.78 LIG-0.35  N 
ATOM     30 H    ALA E  13      -5.216  21.979   2.237  1.00 64.78 LIG 0.16  HD
ATOM     31 O    ALA E  12      -2.970  22.051   0.186  1.00 69.11 LIG-0.27  OA
BRANCH 29 32
ATOM     32  CA  ALA E  13      -5.543  23.068   0.628  1.00 54.23 LIG 0.17  C 
ATOM     33  CB  ALA E  13      -5.779  22.401  -0.728  1.00 56.27 LIG 0.04  C 
BRANCH 32 34
ATOM     34  C   ALA E  13      -6.889  23.466   1.205  1.00 65.29 LIG 0.24  C 
ATOM     35  N   ALA E  14      -6.908  23.661   2.519  1.00 85.74 LIG-0.35  N 
ATOM     36 H    ALA E  14      -6.225  23.537   3.026  1.00 85.74 LIG 0.16  HD
ATOM     37 O    ALA E  13      -7.869  23.652   0.479  1.00 75.52 LIG-0.27  OA
BRANCH 35 38
ATOM     38  CA  ALA E  14      -8.095  24.104   3.227  1.00 94.46 LIG 0.16  C 
ATOM     39  CB  ALA E  14      -7.994  23.739   4.691  1.00106.12 LIG 0.04  C 
BRANCH 38 40
ATOM     40  C   ALA E  14      -8.281  25.608   3.062  1.00 99.07 LIG 0.22  C 
ATOM     41 O    ALA E  14      -7.382  26.306   2.592  1.00120.33 LIG-0.29  OA
ENDBRANCH 38 40
ENDBRANCH 35 38
ENDBRANCH 32 34
ENDBRANCH 29 32
ENDBRANCH 26 28
ENDBRANCH 23 26
ENDBRANCH 1 22
TORSDOF 13
ENDMDL
MODEL 24
USER: ADFR SOLUTION from run 91
USER: SCORE 4.703095 LL:  -2.301 LR:  -4.525 RR:   0.000 FEB:  -0.647
USER: RMSD 5.748350
USER: SEED 90
USER: STATUS no improvement in best in 77 clusters for 5 generations
USER: GENES 15
USER: genes 0 Translation |==|  0.63205 0.35520 0.60386
USER: genes 1 Rotation |==|  0.81819 0.66648 0.56309 0.84214
USER: genes 2 Torsion [CB]-CA--N-[C] |==|  0.14567
USER: genes 3 Torsion [N]-C--CA-[N] |==|  0.02644
USER: genes 4 Torsion [C]-CA--N-[C] |==|  0.57778
USER: genes 5 Torsion [N]-C--CA-[N] |==|  0.46676
USER: genes 6 Torsion [C]-CA--N-[C] |==|  0.55525
USER: genes 7 Torsion [N]-C--CA-[N] |==|  0.47836
USER: genes 8 Torsion [N]-CA--C-[N] |==|  0.54208
USER: genes 9 Torsion [C]-N--CA-[CB] |==|  0.13253
USER: genes 10 Torsion [N]-CA--C-[N] |==|  0.11244
USER: genes 11 Torsion [C]-N--CA-[CB] |==|  0.52778
USER: genes 12 Torsion [N]-CA--C-[N] |==|  0.41938
USER: genes 13 Torsion [C]-N--CA-[C] |==|  0.77250
USER: genes 14 Torsion [N]-CA--C-[O] |==|  0.12867
ROOT
ATOM      1  CA  ALA E  11       1.751  21.023   3.063  1.00 85.35 LIG 0.17  C 
ATOM      2  CB  ALA E  11       1.922  19.673   3.764  1.00 80.46 LIG 0.04  C 
ENDROOT
BRANCH 1 3
ATOM      3  N   ALA E  11       2.474  22.060   3.790  1.00 87.15 LIG-0.35  N 
ATOM      4  C   ALA E  10       3.764  21.898   4.095  1.00 62.15 LIG 0.24  C 
ATOM      5 O    ALA E  10       4.445  20.990   3.616  1.00 65.72 LIG-0.27  OA
ATOM      6 H    ALA E  11       2.008  22.754   3.993  1.00 87.15 LIG 0.16  HD
BRANCH 4 7
ATOM      7  CA  ALA E  10       4.388  22.890   5.071  1.00 66.45 LIG 0.17  C 
ATOM      8  CB  ALA E  10       5.175  22.149   6.150  1.00 58.63 LIG 0.04  C 
BRANCH 7 9
ATOM      9  N   ALA E  10       3.387  23.746   5.690  1.00 75.43 LIG-0.35  N 
ATOM     10  C   ALA E   9       3.652  24.977   6.121  1.00 82.21 LIG 0.24  C 
ATOM     11 O    ALA E   9       4.775  25.491   6.065  1.00 73.75 LIG-0.27  OA
ATOM     12 H    ALA E  10       2.610  23.382   5.753  1.00 75.43 LIG 0.16  HD
BRANCH 10 13
ATOM     13  CA  ALA E   9       2.484  25.739   6.732  1.00 87.65 LIG 0.17  C 
ATOM     14  CB  ALA E   9       1.454  26.110   5.667  1.00 72.21 LIG 0.04  C 
BRANCH 13 15
ATOM     15  N   ALA E   9       3.018  26.923   7.393  1.00 84.24 LIG-0.35  N 
ATOM     16 H    ALA E   9       3.801  27.153   7.123  1.00 84.24 LIG 0.16  HD
ATOM     17  C   ALA E   8       2.342  27.577   8.328  1.00 61.40 LIG 0.26  C 
ATOM     18 O    ALA E   8       1.187  27.292   8.635  1.00 66.21 LIG-0.27  OA
BRANCH 17 19
ATOM     19  CA  ALA E   8       3.066  28.743   8.994  1.00 67.03 LIG 0.40  C 
ATOM     20  N   ALA E   8       2.136  29.503   9.882  1.00 60.26 LIG 0.61  N 
ATOM     21  CB  ALA E   8       4.270  28.246   9.786  1.00 64.64 LIG 0.06  C 
ENDBRANCH 17 19
ENDBRANCH 13 15
ENDBRANCH 10 13
ENDBRANCH 7 9
ENDBRANCH 4 7
ENDBRANCH 1 3
BRANCH 1 22
ATOM     22  C   ALA E  11       0.272  21.363   2.928  1.00 81.78 LIG 0.24  C 
ATOM     23  N   ALA E  12      -0.554  20.382   2.568  1.00 82.91 LIG-0.35  N 
ATOM     24 H    ALA E  12      -0.335  19.552   2.514  1.00 82.91 LIG 0.16  HD
ATOM     25 O    ALA E  11      -0.130  22.514   3.135  1.00 89.30 LIG-0.27  OA
BRANCH 23 26
ATOM     26  CA  ALA E  12      -1.940  20.678   2.231  1.00 61.10 LIG 0.17  C 
ATOM     27  CB  ALA E  12      -2.023  21.866   1.261  1.00 65.27 LIG 0.04  C 
BRANCH 26 28
ATOM     28  C   ALA E  12      -2.616  19.454   1.633  1.00 54.59 LIG 0.24  C 
ATOM     29  N   ALA E  13      -2.305  18.300   2.223  1.00 64.78 LIG-0.35  N 
ATOM     30 H    ALA E  13      -1.815  18.240   2.927  1.00 64.78 LIG 0.16  HD
ATOM     31 O    ALA E  12      -3.416  19.553   0.699  1.00 69.11 LIG-0.27  OA
BRANCH 29 32
ATOM     32  CA  ALA E  13      -2.778  17.022   1.715  1.00 54.23 LIG 0.17  C 
ATOM     33  CB  ALA E  13      -2.474  15.914   2.725  1.00 56.27 LIG 0.04  C 
BRANCH 32 34
ATOM     34  C   ALA E  13      -4.272  17.024   1.444  1.00 65.29 LIG 0.24  C 
ATOM     35  N   ALA E  14      -4.674  16.206   0.478  1.00 85.74 LIG-0.35  N 
ATOM     36 H    ALA E  14      -4.136  15.730   0.005  1.00 85.74 LIG 0.16  HD
ATOM     37 O    ALA E  13      -5.047  17.699   2.126  1.00 75.52 LIG-0.27  OA
BRANCH 35 38
ATOM     38  CA  ALA E  14      -6.073  16.037   0.128  1.00 94.46 LIG 0.16  C 
ATOM     39  CB  ALA E  14      -6.197  15.560  -1.301  1.00106.12 LIG 0.04  C 
BRANCH 38 40
ATOM     40  C   ALA E  14      -6.742  15.054   1.081  1.00 99.07 LIG 0.22  C 
ATOM     41 O    ALA E  14      -6.574  15.141   2.298  1.00120.33 LIG-0.29  OA
ENDBRANCH 38 40
ENDBRANCH 35 38
ENDBRANCH 32 34
ENDBRANCH 29 32
ENDBRANCH 26 28
ENDBRANCH 23 26
ENDBRANCH 1 22
TORSDOF 13
ENDMDL
MODEL 25
USER: ADFR SOLUTION from run 139
USER: SCORE 5.652709 LL:  -2.253 LR:  -4.523 RR:   0.000 FEB:  -0.645
USER: RMSD 4.387504
USER: SEED 138
USER: STATUS no improvement in best in 42 clusters for 5 generations
USER: GENES 15
USER: genes 0 Translation |==|  0.58133 0.28604 0.58381
USER: genes 1 Rotation |==|  0.73022 0.73482 0.56381 0.87120
USER: genes 2 Torsion [CB]-CA--N-[C] |==|  0.13113
USER: genes 3 Torsion [N]-C--CA-[N] |==|  0.48826
USER: genes 4 Torsion [C]-CA--N-[C] |==|  0.76960
USER: genes 5 Torsion [N]-C--CA-[N] |==|  0.47777
USER: genes 6 Torsion [C]-CA--N-[C] |==|  0.83032
USER: genes 7 Torsion [N]-C--CA-[N] |==|  0.03505
USER: genes 8 Torsion [N]-CA--C-[N] |==|  0.11632
USER: genes 9 Torsion [C]-N--CA-[CB] |==|  0.15623
USER: genes 10 Torsion [N]-CA--C-[N] |==|  0.09781
USER: genes 11 Torsion [C]-N--CA-[CB] |==|  0.16330
USER: genes 12 Torsion [N]-CA--C-[N] |==|  0.10811
USER: genes 13 Torsion [C]-N--CA-[C] |==|  0.76792
USER: genes 14 Torsion [N]-CA--C-[O] |==|  0.97302
ROOT
ATOM      1  CA  ALA E  11       0.610  19.778   2.703  1.00 85.35 LIG 0.17  C 
ATOM      2  CB  ALA E  11       1.199  18.853   3.770  1.00 80.46 LIG 0.04  C 
ENDROOT
BRANCH 1 3
ATOM      3  N   ALA E  11       1.039  21.152   2.938  1.00 87.15 LIG-0.35  N 
ATOM      4  C   ALA E  10       2.321  21.426   3.188  1.00 62.15 LIG 0.24  C 
ATOM      5 O    ALA E  10       3.216  20.593   3.034  1.00 65.72 LIG-0.27  OA
ATOM      6 H    ALA E  11       0.412  21.740   2.901  1.00 87.15 LIG 0.16  HD
BRANCH 4 7
ATOM      7  CA  ALA E  10       2.659  22.831   3.677  1.00 66.45 LIG 0.17  C 
ATOM      8  CB  ALA E  10       2.269  23.867   2.624  1.00 58.63 LIG 0.04  C 
BRANCH 7 9
ATOM      9  N   ALA E  10       4.070  22.968   4.005  1.00 75.43 LIG-0.35  N 
ATOM     10  C   ALA E   9       4.582  22.594   5.176  1.00 82.21 LIG 0.24  C 
ATOM     11 O    ALA E   9       3.904  22.129   6.099  1.00 73.75 LIG-0.27  OA
ATOM     12 H    ALA E  10       4.541  23.314   3.374  1.00 75.43 LIG 0.16  HD
BRANCH 10 13
ATOM     13  CA  ALA E   9       6.082  22.797   5.346  1.00 87.65 LIG 0.17  C 
ATOM     14  CB  ALA E   9       6.868  21.904   4.388  1.00 72.21 LIG 0.04  C 
BRANCH 13 15
ATOM     15  N   ALA E   9       6.417  22.514   6.735  1.00 84.24 LIG-0.35  N 
ATOM     16 H    ALA E   9       6.970  21.863   6.838  1.00 84.24 LIG 0.16  HD
ATOM     17  C   ALA E   8       5.907  23.208   7.743  1.00 61.40 LIG 0.26  C 
ATOM     18 O    ALA E   8       5.192  24.195   7.575  1.00 66.21 LIG-0.27  OA
BRANCH 17 19
ATOM     19  CA  ALA E   8       6.279  22.738   9.146  1.00 67.03 LIG 0.40  C 
ATOM     20  N   ALA E   8       7.403  21.755   9.091  1.00 60.26 LIG 0.61  N 
ATOM     21  CB  ALA E   8       6.654  23.924  10.028  1.00 64.64 LIG 0.06  C 
ENDBRANCH 17 19
ENDBRANCH 13 15
ENDBRANCH 10 13
ENDBRANCH 7 9
ENDBRANCH 4 7
ENDBRANCH 1 3
BRANCH 1 22
ATOM     22  C   ALA E  11      -0.909  19.662   2.684  1.00 81.78 LIG 0.24  C 
ATOM     23  N   ALA E  12      -1.591  20.613   2.048  1.00 82.91 LIG-0.35  N 
ATOM     24 H    ALA E  12      -1.237  21.223   1.555  1.00 82.91 LIG 0.16  HD
ATOM     25 O    ALA E  11      -1.476  18.721   3.254  1.00 89.30 LIG-0.27  OA
BRANCH 23 26
ATOM     26  CA  ALA E  12      -3.042  20.672   2.156  1.00 61.10 LIG 0.17  C 
ATOM     27  CB  ALA E  12      -3.475  20.764   3.627  1.00 65.27 LIG 0.04  C 
BRANCH 26 28
ATOM     28  C   ALA E  12      -3.588  21.850   1.366  1.00 54.59 LIG 0.24  C 
ATOM     29  N   ALA E  13      -2.928  22.122   0.240  1.00 64.78 LIG-0.35  N 
ATOM     30 H    ALA E  13      -2.284  21.641  -0.064  1.00 64.78 LIG 0.16  HD
ATOM     31 O    ALA E  12      -4.589  22.467   1.740  1.00 69.11 LIG-0.27  OA
BRANCH 29 32
ATOM     32  CA  ALA E  13      -3.249  23.277  -0.582  1.00 54.23 LIG 0.17  C 
ATOM     33  CB  ALA E  13      -3.097  24.560   0.236  1.00 56.27 LIG 0.04  C 
BRANCH 32 34
ATOM     34  C   ALA E  13      -2.357  23.383  -1.806  1.00 65.29 LIG 0.24  C 
ATOM     35  N   ALA E  14      -2.064  22.229  -2.395  1.00 85.74 LIG-0.35  N 
ATOM     36 H    ALA E  14      -2.322  21.465  -2.097  1.00 85.74 LIG 0.16  HD
ATOM     37 O    ALA E  13      -1.992  24.477  -2.242  1.00 75.52 LIG-0.27  OA
BRANCH 35 38
ATOM     38  CA  ALA E  14      -1.274  22.150  -3.611  1.00 94.46 LIG 0.16  C 
ATOM     39  CB  ALA E  14      -0.584  20.808  -3.697  1.00106.12 LIG 0.04  C 
BRANCH 38 40
ATOM     40  C   ALA E  14      -2.156  22.378  -4.833  1.00 99.07 LIG 0.22  C 
ATOM     41 O    ALA E  14      -3.382  22.415  -4.727  1.00120.33 LIG-0.29  OA
ENDBRANCH 38 40
ENDBRANCH 35 38
ENDBRANCH 32 34
ENDBRANCH 29 32
ENDBRANCH 26 28
ENDBRANCH 23 26
ENDBRANCH 1 22
TORSDOF 13
ENDMDL
MODEL 26
USER: ADFR SOLUTION from run 91
USER: SCORE 5.380083 LL:  -2.523 LR:  -4.491 RR:   0.000 FEB:  -0.614
USER: RMSD 5.455637
USER: SEED 90
USER: STATUS no improvement in best in 77 clusters for 5 generations
USER: GENES 15
USER: genes 0 Translation |==|  0.63201 0.35579 0.60386
USER: genes 1 Rotation |==|  0.81440 0.66608 0.56104 0.84618
USER: genes 2 Torsion [CB]-CA--N-[C] |==|  0.14495
USER: genes 3 Torsion [N]-C--CA-[N] |==|  0.02541
USER: genes 4 Torsion [C]-CA--N-[C] |==|  0.57830
USER: genes 5 Torsion [N]-C--CA-[N] |==|  0.46719
USER: genes 6 Torsion [C]-CA--N-[C] |==|  0.55547
USER: genes 7 Torsion [N]-C--CA-[N] |==|  0.49070
USER: genes 8 Torsion [N]-CA--C-[N] |==|  0.04608
USER: genes 9 Torsion [C]-N--CA-[CB] |==|  0.13338
USER: genes 10 Torsion [N]-CA--C-[N] |==|  0.11255
USER: genes 11 Torsion [C]-N--CA-[CB] |==|  0.52750
USER: genes 12 Torsion [N]-CA--C-[N] |==|  0.41958
USER: genes 13 Torsion [C]-N--CA-[C] |==|  0.77249
USER: genes 14 Torsion [N]-CA--C-[O] |==|  0.01476
ROOT
ATOM      1  CA  ALA E  11       1.750  21.033   3.064  1.00 85.35 LIG 0.17  C 
ATOM      2  CB  ALA E  11       1.914  19.700   3.795  1.00 80.46 LIG 0.04  C 
ENDROOT
BRANCH 1 3
ATOM      3  N   ALA E  11       2.475  22.085   3.769  1.00 87.15 LIG-0.35  N 
ATOM      4  C   ALA E  10       3.762  21.923   4.086  1.00 62.15 LIG 0.24  C 
ATOM      5 O    ALA E  10       4.440  20.999   3.635  1.00 65.72 LIG-0.27  OA
ATOM      6 H    ALA E  11       2.012  22.787   3.951  1.00 87.15 LIG 0.16  HD
BRANCH 4 7
ATOM      7  CA  ALA E  10       4.385  22.936   5.040  1.00 66.45 LIG 0.17  C 
ATOM      8  CB  ALA E  10       5.154  22.218   6.148  1.00 58.63 LIG 0.04  C 
BRANCH 7 9
ATOM      9  N   ALA E  10       3.387  23.819   5.624  1.00 75.43 LIG-0.35  N 
ATOM     10  C   ALA E   9       3.659  25.060   6.020  1.00 82.21 LIG 0.24  C 
ATOM     11 O    ALA E   9       4.786  25.563   5.958  1.00 73.75 LIG-0.27  OA
ATOM     12 H    ALA E  10       2.606  23.464   5.691  1.00 75.43 LIG 0.16  HD
BRANCH 10 13
ATOM     13  CA  ALA E   9       2.492  25.850   6.597  1.00 87.65 LIG 0.17  C 
ATOM     14  CB  ALA E   9       1.473  26.194   5.513  1.00 72.21 LIG 0.04  C 
BRANCH 13 15
ATOM     15  N   ALA E   9       3.030  27.051   7.223  1.00 84.24 LIG-0.35  N 
ATOM     16 H    ALA E   9       3.817  27.267   6.951  1.00 84.24 LIG 0.16  HD
ATOM     17  C   ALA E   8       2.353  27.739   8.132  1.00 61.40 LIG 0.26  C 
ATOM     18 O    ALA E   8       1.194  27.471   8.441  1.00 66.21 LIG-0.27  OA
BRANCH 17 19
ATOM     19  CA  ALA E   8       3.081  28.921   8.765  1.00 67.03 LIG 0.40  C 
ATOM     20  N   ALA E   8       2.181  29.652   9.706  1.00 60.26 LIG 0.61  N 
ATOM     21  CB  ALA E   8       4.339  28.452   9.490  1.00 64.64 LIG 0.06  C 
ENDBRANCH 17 19
ENDBRANCH 13 15
ENDBRANCH 10 13
ENDBRANCH 7 9
ENDBRANCH 4 7
ENDBRANCH 1 3
BRANCH 1 22
ATOM     22  C   ALA E  11       0.273  21.376   2.915  1.00 81.78 LIG 0.24  C 
ATOM     23  N   ALA E  12      -0.087  22.644   3.107  1.00 82.91 LIG-0.35  N 
ATOM     24 H    ALA E  12       0.462  23.300   3.198  1.00 82.91 LIG 0.16  HD
ATOM     25 O    ALA E  11      -0.553  20.497   2.640  1.00 89.30 LIG-0.27  OA
BRANCH 23 26
ATOM     26  CA  ALA E  12      -1.496  23.004   3.174  1.00 61.10 LIG 0.17  C 
ATOM     27  CB  ALA E  12      -2.255  22.062   4.121  1.00 65.27 LIG 0.04  C 
BRANCH 26 28
ATOM     28  C   ALA E  12      -1.657  24.449   3.620  1.00 54.59 LIG 0.24  C 
ATOM     29  N   ALA E  13      -0.777  25.298   3.089  1.00 64.78 LIG-0.35  N 
ATOM     30 H    ALA E  13      -0.200  25.076   2.491  1.00 64.78 LIG 0.16  HD
ATOM     31 O    ALA E  12      -2.563  24.789   4.384  1.00 69.11 LIG-0.27  OA
BRANCH 29 32
ATOM     32  CA  ALA E  13      -0.720  26.696   3.484  1.00 54.23 LIG 0.17  C 
ATOM     33  CB  ALA E  13       0.206  27.467   2.542  1.00 56.27 LIG 0.04  C 
BRANCH 32 34
ATOM     34  C   ALA E  13      -2.084  27.361   3.462  1.00 65.29 LIG 0.24  C 
ATOM     35  N   ALA E  14      -2.243  28.359   4.323  1.00 85.74 LIG-0.35  N 
ATOM     36 H    ALA E  14      -1.640  28.600   4.886  1.00 85.74 LIG 0.16  HD
ATOM     37 O    ALA E  13      -2.949  27.023   2.650  1.00 75.52 LIG-0.27  OA
BRANCH 35 38
ATOM     38  CA  ALA E  14      -3.463  29.143   4.395  1.00 94.46 LIG 0.16  C 
ATOM     39  CB  ALA E  14      -3.605  29.760   5.768  1.00106.12 LIG 0.04  C 
BRANCH 38 40
ATOM     40  C   ALA E  14      -3.461  30.225   3.320  1.00 99.07 LIG 0.22  C 
ATOM     41 O    ALA E  14      -2.559  30.280   2.483  1.00120.33 LIG-0.29  OA
ENDBRANCH 38 40
ENDBRANCH 35 38
ENDBRANCH 32 34
ENDBRANCH 29 32
ENDBRANCH 26 28
ENDBRANCH 23 26
ENDBRANCH 1 22
TORSDOF 13
ENDMDL
MODEL 27
USER: ADFR SOLUTION from run 91
USER: SCORE 5.734132 LL:  -2.564 LR:  -4.489 RR:   0.000 FEB:  -0.611
USER: RMSD 5.395732
USER: SEED 90
USER: STATUS no improvement in best in 77 clusters for 5 generations
USER: GENES 15
USER: genes 0 Translation |==|  0.63165 0.35882 0.59827
USER: genes 1 Rotation |==|  0.81854 0.65831 0.56735 0.84487
USER: genes 2 Torsion [CB]-CA--N-[C] |==|  0.15487
USER: genes 3 Torsion [N]-C--CA-[N] |==|  0.01195
USER: genes 4 Torsion [C]-CA--N-[C] |==|  0.57871
USER: genes 5 Torsion [N]-C--CA-[N] |==|  0.45671
USER: genes 6 Torsion [C]-CA--N-[C] |==|  0.55349
USER: genes 7 Torsion [N]-C--CA-[N] |==|  0.48521
USER: genes 8 Torsion [N]-CA--C-[N] |==|  0.11991
USER: genes 9 Torsion [C]-N--CA-[CB] |==|  0.18720
USER: genes 10 Torsion [N]-CA--C-[N] |==|  0.09386
USER: genes 11 Torsion [C]-N--CA-[CB] |==|  0.84912
USER: genes 12 Torsion [N]-CA--C-[N] |==|  0.37779
USER: genes 13 Torsion [C]-N--CA-[C] |==|  0.77250
USER: genes 14 Torsion [N]-CA--C-[O] |==|  0.12867
ROOT
ATOM      1  CA  ALA E  11       1.742  21.088   2.963  1.00 85.35 LIG 0.17  C 
ATOM      2  CB  ALA E  11       1.872  19.734   3.663  1.00 80.46 LIG 0.04  C 
ENDROOT
BRANCH 1 3
ATOM      3  N   ALA E  11       2.449  22.115   3.720  1.00 87.15 LIG-0.35  N 
ATOM      4  C   ALA E  10       3.743  21.966   4.014  1.00 62.15 LIG 0.24  C 
ATOM      5 O    ALA E  10       4.439  21.087   3.504  1.00 65.72 LIG-0.27  OA
ATOM      6 H    ALA E  11       1.972  22.793   3.947  1.00 87.15 LIG 0.16  HD
BRANCH 4 7
ATOM      7  CA  ALA E  10       4.353  22.938   5.019  1.00 66.45 LIG 0.17  C 
ATOM      8  CB  ALA E  10       5.050  22.172   6.142  1.00 58.63 LIG 0.04  C 
BRANCH 7 9
ATOM      9  N   ALA E  10       3.356  23.837   5.580  1.00 75.43 LIG-0.35  N 
ATOM     10  C   ALA E   9       3.646  25.062   6.014  1.00 82.21 LIG 0.24  C 
ATOM     11 O    ALA E   9       4.789  25.532   6.012  1.00 73.75 LIG-0.27  OA
ATOM     12 H    ALA E  10       2.563  23.504   5.605  1.00 75.43 LIG 0.16  HD
BRANCH 10 13
ATOM     13  CA  ALA E   9       2.478  25.873   6.559  1.00 87.65 LIG 0.17  C 
ATOM     14  CB  ALA E   9       1.567  26.349   5.430  1.00 72.21 LIG 0.04  C 
BRANCH 13 15
ATOM     15  N   ALA E   9       3.025  26.995   7.311  1.00 84.24 LIG-0.35  N 
ATOM     16 H    ALA E   9       3.844  27.180   7.123  1.00 84.24 LIG 0.16  HD
ATOM     17  C   ALA E   8       2.310  27.664   8.205  1.00 61.40 LIG 0.26  C 
ATOM     18 O    ALA E   8       1.115  27.449   8.395  1.00 66.21 LIG-0.27  OA
BRANCH 17 19
ATOM     19  CA  ALA E   8       3.044  28.755   8.979  1.00 67.03 LIG 0.40  C 
ATOM     20  N   ALA E   8       2.097  29.510   9.853  1.00 60.26 LIG 0.61  N 
ATOM     21  CB  ALA E   8       4.173  28.157   9.811  1.00 64.64 LIG 0.06  C 
ENDBRANCH 17 19
ENDBRANCH 13 15
ENDBRANCH 10 13
ENDBRANCH 7 9
ENDBRANCH 4 7
ENDBRANCH 1 3
BRANCH 1 22
ATOM     22  C   ALA E  11       0.273  21.445   2.775  1.00 81.78 LIG 0.24  C 
ATOM     23  N   ALA E  12      -0.017  22.703   2.449  1.00 82.91 LIG-0.35  N 
ATOM     24 H    ALA E  12       0.564  23.299   2.230  1.00 82.91 LIG 0.16  HD
ATOM     25 O    ALA E  11      -0.608  20.591   2.934  1.00 89.30 LIG-0.27  OA
BRANCH 23 26
ATOM     26  CA  ALA E  12      -1.401  23.160   2.445  1.00 61.10 LIG 0.17  C 
ATOM     27  CB  ALA E  12      -1.970  23.182   3.872  1.00 65.27 LIG 0.04  C 
BRANCH 26 28
ATOM     28  C   ALA E  12      -1.506  24.536   1.809  1.00 54.59 LIG 0.24  C 
ATOM     29  N   ALA E  13      -0.644  24.761   0.817  1.00 64.78 LIG-0.35  N 
ATOM     30 H    ALA E  13      -0.108  24.164   0.506  1.00 64.78 LIG 0.16  HD
ATOM     31 O    ALA E  12      -2.359  25.350   2.173  1.00 69.11 LIG-0.27  OA
BRANCH 29 32
ATOM     32  CA  ALA E  13      -0.536  26.057   0.167  1.00 54.23 LIG 0.17  C 
ATOM     33  CB  ALA E  13      -1.908  26.501  -0.342  1.00 56.27 LIG 0.04  C 
BRANCH 32 34
ATOM     34  C   ALA E  13      -0.003  27.129   1.100  1.00 65.29 LIG 0.24  C 
ATOM     35  N   ALA E  14       0.920  27.929   0.576  1.00 85.74 LIG-0.35  N 
ATOM     36 H    ALA E  14       1.231  27.836  -0.220  1.00 85.74 LIG 0.16  HD
ATOM     37 O    ALA E  13      -0.453  27.271   2.239  1.00 75.52 LIG-0.27  OA
BRANCH 35 38
ATOM     38  CA  ALA E  14       1.494  29.045   1.306  1.00 94.46 LIG 0.16  C 
ATOM     39  CB  ALA E  14       2.858  29.384   0.750  1.00106.12 LIG 0.04  C 
BRANCH 38 40
ATOM     40  C   ALA E  14       0.570  30.256   1.235  1.00 99.07 LIG 0.22  C 
ATOM     41 O    ALA E  14      -0.639  30.139   1.436  1.00120.33 LIG-0.29  OA
ENDBRANCH 38 40
ENDBRANCH 35 38
ENDBRANCH 32 34
ENDBRANCH 29 32
ENDBRANCH 26 28
ENDBRANCH 23 26
ENDBRANCH 1 22
TORSDOF 13
ENDMDL
MODEL 28
USER: ADFR SOLUTION from run 123
USER: SCORE 6.171683 LL:  -2.961 LR:  -4.494 RR:   0.000 FEB:  -0.616
USER: RMSD 6.453368
USER: SEED 122
USER: STATUS no improvement in best in 47 clusters for 5 generations
USER: GENES 15
USER: genes 0 Translation |==|  0.63952 0.35329 0.58532
USER: genes 1 Rotation |==|  0.80049 0.71156 0.49249 0.83896
USER: genes 2 Torsion [CB]-CA--N-[C] |==|  0.12545
USER: genes 3 Torsion [N]-C--CA-[N] |==|  0.03286
USER: genes 4 Torsion [C]-CA--N-[C] |==|  0.18755
USER: genes 5 Torsion [N]-C--CA-[N] |==|  0.04945
USER: genes 6 Torsion [C]-CA--N-[C] |==|  0.72948
USER: genes 7 Torsion [N]-C--CA-[N] |==|  0.68938
USER: genes 8 Torsion [N]-CA--C-[N] |==|  0.14368
USER: genes 9 Torsion [C]-N--CA-[CB] |==|  0.85544
USER: genes 10 Torsion [N]-CA--C-[N] |==|  0.41999
USER: genes 11 Torsion [C]-N--CA-[CB] |==|  0.51686
USER: genes 12 Torsion [N]-CA--C-[N] |==|  0.42396
USER: genes 13 Torsion [C]-N--CA-[C] |==|  0.16461
USER: genes 14 Torsion [N]-CA--C-[O] |==|  0.07010
ROOT
ATOM      1  CA  ALA E  11       1.919  20.988   2.730  1.00 85.35 LIG 0.17  C 
ATOM      2  CB  ALA E  11       2.252  19.747   3.560  1.00 80.46 LIG 0.04  C 
ENDROOT
BRANCH 1 3
ATOM      3  N   ALA E  11       2.856  22.063   3.037  1.00 87.15 LIG-0.35  N 
ATOM      4  C   ALA E  10       4.166  21.816   3.119  1.00 62.15 LIG 0.24  C 
ATOM      5 O    ALA E  10       4.659  20.750   2.748  1.00 65.72 LIG-0.27  OA
ATOM      6 H    ALA E  11       2.497  22.836   3.154  1.00 87.15 LIG 0.16  HD
BRANCH 4 7
ATOM      7  CA  ALA E  10       5.055  22.913   3.693  1.00 66.45 LIG 0.17  C 
ATOM      8  CB  ALA E  10       6.038  22.325   4.705  1.00 58.63 LIG 0.04  C 
BRANCH 7 9
ATOM      9  N   ALA E  10       4.278  23.972   4.319  1.00 75.43 LIG-0.35  N 
ATOM     10  C   ALA E   9       3.570  23.791   5.431  1.00 82.21 LIG 0.24  C 
ATOM     11 O    ALA E   9       3.481  22.704   6.013  1.00 73.75 LIG-0.27  OA
ATOM     12 H    ALA E  10       4.319  24.724   3.903  1.00 75.43 LIG 0.16  HD
BRANCH 10 13
ATOM     13  CA  ALA E   9       2.827  25.012   5.957  1.00 87.65 LIG 0.17  C 
ATOM     14  CB  ALA E   9       1.444  24.629   6.481  1.00 72.21 LIG 0.04  C 
BRANCH 13 15
ATOM     15  N   ALA E   9       2.736  25.983   4.874  1.00 84.24 LIG-0.35  N 
ATOM     16 H    ALA E   9       2.089  25.839   4.326  1.00 84.24 LIG 0.16  HD
ATOM     17  C   ALA E   8       3.586  26.994   4.756  1.00 61.40 LIG 0.26  C 
ATOM     18 O    ALA E   8       4.447  27.239   5.598  1.00 66.21 LIG-0.27  OA
BRANCH 17 19
ATOM     19  CA  ALA E   8       3.422  27.874   3.520  1.00 67.03 LIG 0.40  C 
ATOM     20  N   ALA E   8       4.584  27.707   2.596  1.00 60.26 LIG 0.61  N 
ATOM     21  CB  ALA E   8       2.118  27.550   2.799  1.00 64.64 LIG 0.06  C 
ENDBRANCH 17 19
ENDBRANCH 13 15
ENDBRANCH 10 13
ENDBRANCH 7 9
ENDBRANCH 4 7
ENDBRANCH 1 3
BRANCH 1 22
ATOM     22  C   ALA E  11       0.478  21.416   2.975  1.00 81.78 LIG 0.24  C 
ATOM     23  N   ALA E  12       0.069  22.552   2.411  1.00 82.91 LIG-0.35  N 
ATOM     24 H    ALA E  12       0.520  23.002   1.833  1.00 82.91 LIG 0.16  HD
ATOM     25 O    ALA E  11      -0.270  20.732   3.684  1.00 89.30 LIG-0.27  OA
BRANCH 23 26
ATOM     26  CA  ALA E  12      -1.227  23.119   2.760  1.00 61.10 LIG 0.17  C 
ATOM     27  CB  ALA E  12      -2.339  22.070   2.610  1.00 65.27 LIG 0.04  C 
BRANCH 26 28
ATOM     28  C   ALA E  12      -1.204  23.669   4.177  1.00 54.59 LIG 0.24  C 
ATOM     29  N   ALA E  13      -2.037  24.687   4.395  1.00 64.78 LIG-0.35  N 
ATOM     30 H    ALA E  13      -2.597  24.979   3.811  1.00 64.78 LIG 0.16  HD
ATOM     31 O    ALA E  12      -0.489  23.169   5.050  1.00 69.11 LIG-0.27  OA
BRANCH 29 32
ATOM     32  CA  ALA E  13      -2.069  25.400   5.661  1.00 54.23 LIG 0.17  C 
ATOM     33  CB  ALA E  13      -3.219  26.408   5.664  1.00 56.27 LIG 0.04  C 
BRANCH 32 34
ATOM     34  C   ALA E  13      -2.248  24.468   6.846  1.00 65.29 LIG 0.24  C 
ATOM     35  N   ALA E  14      -1.740  24.905   7.993  1.00 85.74 LIG-0.35  N 
ATOM     36 H    ALA E  14      -1.305  25.643   8.068  1.00 85.74 LIG 0.16  HD
ATOM     37 O    ALA E  13      -2.878  23.413   6.743  1.00 75.52 LIG-0.27  OA
BRANCH 35 38
ATOM     38  CA  ALA E  14      -1.873  24.170   9.238  1.00 94.46 LIG 0.16  C 
ATOM     39  CB  ALA E  14      -3.331  24.058   9.622  1.00106.12 LIG 0.04  C 
BRANCH 38 40
ATOM     40  C   ALA E  14      -1.247  22.786   9.105  1.00 99.07 LIG 0.22  C 
ATOM     41 O    ALA E  14      -0.354  22.575   8.285  1.00120.33 LIG-0.29  OA
ENDBRANCH 38 40
ENDBRANCH 35 38
ENDBRANCH 32 34
ENDBRANCH 29 32
ENDBRANCH 26 28
ENDBRANCH 23 26
ENDBRANCH 1 22
TORSDOF 13
ENDMDL
MODEL 29
USER: ADFR SOLUTION from run 67
USER: SCORE 4.729625 LL:  -2.463 LR:  -4.479 RR:   0.000 FEB:  -0.601
USER: RMSD 3.843910
USER: SEED 66
USER: STATUS searching
USER: GENES 15
USER: genes 0 Translation |==|  0.66236 0.35730 0.60488
USER: genes 1 Rotation |==|  0.80950 0.65136 0.58634 0.85192
USER: genes 2 Torsion [CB]-CA--N-[C] |==|  0.13404
USER: genes 3 Torsion [N]-C--CA-[N] |==|  0.04946
USER: genes 4 Torsion [C]-CA--N-[C] |==|  0.63457
USER: genes 5 Torsion [N]-C--CA-[N] |==|  0.51649
USER: genes 6 Torsion [C]-CA--N-[C] |==|  0.77336
USER: genes 7 Torsion [N]-C--CA-[N] |==|  0.31280
USER: genes 8 Torsion [N]-CA--C-[N] |==|  0.61618
USER: genes 9 Torsion [C]-N--CA-[CB] |==|  0.52429
USER: genes 10 Torsion [N]-CA--C-[N] |==|  0.37027
USER: genes 11 Torsion [C]-N--CA-[CB] |==|  0.16966
USER: genes 12 Torsion [N]-CA--C-[N] |==|  0.10141
USER: genes 13 Torsion [C]-N--CA-[C] |==|  0.54788
USER: genes 14 Torsion [N]-CA--C-[O] |==|  0.95068
ROOT
ATOM      1  CA  ALA E  11       2.433  21.060   3.082  1.00 85.35 LIG 0.17  C 
ATOM      2  CB  ALA E  11       2.562  19.723   3.813  1.00 80.46 LIG 0.04  C 
ENDROOT
BRANCH 1 3
ATOM      3  N   ALA E  11       3.033  22.127   3.876  1.00 87.15 LIG-0.35  N 
ATOM      4  C   ALA E  10       4.251  21.974   4.403  1.00 62.15 LIG 0.24  C 
ATOM      5 O    ALA E  10       4.994  21.044   4.086  1.00 65.72 LIG-0.27  OA
ATOM      6 H    ALA E  11       2.546  22.830   3.967  1.00 87.15 LIG 0.16  HD
BRANCH 4 7
ATOM      7  CA  ALA E  10       4.710  23.006   5.427  1.00 66.45 LIG 0.17  C 
ATOM      8  CB  ALA E  10       5.477  22.326   6.559  1.00 58.63 LIG 0.04  C 
BRANCH 7 9
ATOM      9  N   ALA E  10       3.594  23.763   5.974  1.00 75.43 LIG-0.35  N 
ATOM     10  C   ALA E   9       3.592  25.092   6.062  1.00 82.21 LIG 0.24  C 
ATOM     11 O    ALA E   9       4.547  25.798   5.720  1.00 73.75 LIG-0.27  OA
ATOM     12 H    ALA E  10       2.937  23.273   6.235  1.00 75.43 LIG 0.16  HD
BRANCH 10 13
ATOM     13  CA  ALA E   9       2.336  25.722   6.648  1.00 87.65 LIG 0.17  C 
ATOM     14  CB  ALA E   9       1.084  25.213   5.937  1.00 72.21 LIG 0.04  C 
BRANCH 13 15
ATOM     15  N   ALA E   9       2.465  27.169   6.531  1.00 84.24 LIG-0.35  N 
ATOM     16 H    ALA E   9       2.054  27.505   5.854  1.00 84.24 LIG 0.16  HD
ATOM     17  C   ALA E   8       3.158  27.891   7.401  1.00 61.40 LIG 0.26  C 
ATOM     18 O    ALA E   8       3.660  27.409   8.414  1.00 66.21 LIG-0.27  OA
BRANCH 17 19
ATOM     19  CA  ALA E   8       3.279  29.381   7.097  1.00 67.03 LIG 0.40  C 
ATOM     20  N   ALA E   8       2.536  30.188   8.111  1.00 60.26 LIG 0.61  N 
ATOM     21  CB  ALA E   8       4.744  29.804   7.053  1.00 64.64 LIG 0.06  C 
ENDBRANCH 17 19
ENDBRANCH 13 15
ENDBRANCH 10 13
ENDBRANCH 7 9
ENDBRANCH 4 7
ENDBRANCH 1 3
BRANCH 1 22
ATOM     22  C   ALA E  11       0.971  21.352   2.769  1.00 81.78 LIG 0.24  C 
ATOM     23  N   ALA E  12       0.109  20.340   2.859  1.00 82.91 LIG-0.35  N 
ATOM     24 H    ALA E  12       0.296  19.566   3.186  1.00 82.91 LIG 0.16  HD
ATOM     25 O    ALA E  11       0.613  22.487   2.433  1.00 89.30 LIG-0.27  OA
BRANCH 23 26
ATOM     26  CA  ALA E  12      -1.260  20.498   2.389  1.00 61.10 LIG 0.17  C 
ATOM     27  CB  ALA E  12      -2.118  19.288   2.789  1.00 65.27 LIG 0.04  C 
BRANCH 26 28
ATOM     28  C   ALA E  12      -1.865  21.782   2.933  1.00 54.59 LIG 0.24  C 
ATOM     29  N   ALA E  13      -2.504  22.526   2.029  1.00 64.78 LIG-0.35  N 
ATOM     30 H    ALA E  13      -2.629  22.283   1.214  1.00 64.78 LIG 0.16  HD
ATOM     31 O    ALA E  12      -1.791  22.072   4.130  1.00 69.11 LIG-0.27  OA
BRANCH 29 32
ATOM     32  CA  ALA E  13      -3.051  23.833   2.353  1.00 54.23 LIG 0.17  C 
ATOM     33  CB  ALA E  13      -1.930  24.774   2.796  1.00 56.27 LIG 0.04  C 
BRANCH 32 34
ATOM     34  C   ALA E  13      -3.771  24.468   1.177  1.00 65.29 LIG 0.24  C 
ATOM     35  N   ALA E  14      -4.446  23.624   0.404  1.00 85.74 LIG-0.35  N 
ATOM     36 H    ALA E  14      -4.454  22.774   0.524  1.00 85.74 LIG 0.16  HD
ATOM     37 O    ALA E  13      -3.768  25.689   1.006  1.00 75.52 LIG-0.27  OA
BRANCH 35 38
ATOM     38  CA  ALA E  14      -5.240  24.067  -0.729  1.00 94.46 LIG 0.16  C 
ATOM     39  CB  ALA E  14      -4.337  24.449  -1.879  1.00106.12 LIG 0.04  C 
BRANCH 38 40
ATOM     40  C   ALA E  14      -6.214  22.974  -1.153  1.00 99.07 LIG 0.22  C 
ATOM     41 O    ALA E  14      -6.046  21.807  -0.796  1.00120.33 LIG-0.29  OA
ENDBRANCH 38 40
ENDBRANCH 35 38
ENDBRANCH 32 34
ENDBRANCH 29 32
ENDBRANCH 26 28
ENDBRANCH 23 26
ENDBRANCH 1 22
TORSDOF 13
ENDMDL
MODEL 30
USER: ADFR SOLUTION from run 128
USER: SCORE 5.230949 LL:  -2.413 LR:  -4.484 RR:   0.000 FEB:  -0.606
USER: RMSD 4.607790
USER: SEED 127
USER: STATUS no improvement in best in 25 clusters for 5 generations
USER: GENES 15
USER: genes 0 Translation |==|  0.60010 0.26259 0.58355
USER: genes 1 Rotation |==|  0.71893 0.77417 0.56204 0.85079
USER: genes 2 Torsion [CB]-CA--N-[C] |==|  0.14199
USER: genes 3 Torsion [N]-C--CA-[N] |==|  0.43862
USER: genes 4 Torsion [C]-CA--N-[C] |==|  0.79245
USER: genes 5 Torsion [N]-C--CA-[N] |==|  0.46450
USER: genes 6 Torsion [C]-CA--N-[C] |==|  0.82750
USER: genes 7 Torsion [N]-C--CA-[N] |==|  0.05071
USER: genes 8 Torsion [N]-CA--C-[N] |==|  0.10906
USER: genes 9 Torsion [C]-N--CA-[CB] |==|  0.20630
USER: genes 10 Torsion [N]-CA--C-[N] |==|  0.54884
USER: genes 11 Torsion [C]-N--CA-[CB] |==|  0.81496
USER: genes 12 Torsion [N]-CA--C-[N] |==|  0.15003
USER: genes 13 Torsion [C]-N--CA-[C] |==|  0.76045
USER: genes 14 Torsion [N]-CA--C-[O] |==|  0.99152
ROOT
ATOM      1  CA  ALA E  11       1.032  19.356   2.698  1.00 85.35 LIG 0.17  C 
ATOM      2  CB  ALA E  11       1.865  18.521   3.673  1.00 80.46 LIG 0.04  C 
ENDROOT
BRANCH 1 3
ATOM      3  N   ALA E  11       1.352  20.771   2.849  1.00 87.15 LIG-0.35  N 
ATOM      4  C   ALA E  10       2.622  21.184   2.818  1.00 62.15 LIG 0.24  C 
ATOM      5 O    ALA E  10       3.545  20.449   2.466  1.00 65.72 LIG-0.27  OA
ATOM      6 H    ALA E  11       0.673  21.288   2.954  1.00 87.15 LIG 0.16  HD
BRANCH 4 7
ATOM      7  CA  ALA E  10       2.905  22.622   3.237  1.00 66.45 LIG 0.17  C 
ATOM      8  CB  ALA E  10       2.580  23.582   2.093  1.00 58.63 LIG 0.04  C 
BRANCH 7 9
ATOM      9  N   ALA E  10       4.286  22.805   3.656  1.00 75.43 LIG-0.35  N 
ATOM     10  C   ALA E   9       4.753  22.372   4.825  1.00 82.21 LIG 0.24  C 
ATOM     11 O    ALA E   9       4.051  21.807   5.672  1.00 73.75 LIG-0.27  OA
ATOM     12 H    ALA E  10       4.772  23.220   3.080  1.00 75.43 LIG 0.16  HD
BRANCH 10 13
ATOM     13  CA  ALA E   9       6.227  22.636   5.097  1.00 87.65 LIG 0.17  C 
ATOM     14  CB  ALA E   9       7.113  21.768   4.206  1.00 72.21 LIG 0.04  C 
BRANCH 13 15
ATOM     15  N   ALA E   9       6.476  22.378   6.509  1.00 84.24 LIG-0.35  N 
ATOM     16 H    ALA E   9       7.036  21.741   6.657  1.00 84.24 LIG 0.16  HD
ATOM     17  C   ALA E   8       5.884  23.072   7.472  1.00 61.40 LIG 0.26  C 
ATOM     18 O    ALA E   8       5.160  24.039   7.244  1.00 66.21 LIG-0.27  OA
BRANCH 17 19
ATOM     19  CA  ALA E   8       6.173  22.627   8.902  1.00 67.03 LIG 0.40  C 
ATOM     20  N   ALA E   8       7.402  21.779   8.952  1.00 60.26 LIG 0.61  N 
ATOM     21  CB  ALA E   8       6.324  23.835   9.820  1.00 64.64 LIG 0.06  C 
ENDBRANCH 17 19
ENDBRANCH 13 15
ENDBRANCH 10 13
ENDBRANCH 7 9
ENDBRANCH 4 7
ENDBRANCH 1 3
BRANCH 1 22
ATOM     22  C   ALA E  11      -0.453  19.092   2.913  1.00 81.78 LIG 0.24  C 
ATOM     23  N   ALA E  12      -1.313  19.984   2.423  1.00 82.91 LIG-0.35  N 
ATOM     24 H    ALA E  12      -1.100  20.635   1.902  1.00 82.91 LIG 0.16  HD
ATOM     25 O    ALA E  11      -0.831  18.091   3.533  1.00 89.30 LIG-0.27  OA
BRANCH 23 26
ATOM     26  CA  ALA E  12      -2.728  19.899   2.759  1.00 61.10 LIG 0.17  C 
ATOM     27  CB  ALA E  12      -2.974  20.362   4.203  1.00 65.27 LIG 0.04  C 
BRANCH 26 28
ATOM     28  C   ALA E  12      -3.556  20.724   1.788  1.00 54.59 LIG 0.24  C 
ATOM     29  N   ALA E  13      -4.788  21.012   2.209  1.00 64.78 LIG-0.35  N 
ATOM     30 H    ALA E  13      -5.084  20.812   2.991  1.00 64.78 LIG 0.16  HD
ATOM     31 O    ALA E  12      -3.089  21.117   0.716  1.00 69.11 LIG-0.27  OA
BRANCH 29 32
ATOM     32  CA  ALA E  13      -5.750  21.703   1.365  1.00 54.23 LIG 0.17  C 
ATOM     33  CB  ALA E  13      -5.281  23.134   1.102  1.00 56.27 LIG 0.04  C 
BRANCH 32 34
ATOM     34  C   ALA E  13      -5.948  21.012   0.028  1.00 65.29 LIG 0.24  C 
ATOM     35  N   ALA E  14      -6.272  19.726   0.097  1.00 85.74 LIG-0.35  N 
ATOM     36 H    ALA E  14      -6.333  19.291   0.836  1.00 85.74 LIG 0.16  HD
ATOM     37 O    ALA E  13      -5.870  21.634  -1.034  1.00 75.52 LIG-0.27  OA
BRANCH 35 38
ATOM     38  CA  ALA E  14      -6.558  18.927  -1.081  1.00 94.46 LIG 0.16  C 
ATOM     39  CB  ALA E  14      -6.209  17.479  -0.825  1.00106.12 LIG 0.04  C 
BRANCH 38 40
ATOM     40  C   ALA E  14      -8.025  19.063  -1.471  1.00 99.07 LIG 0.22  C 
ATOM     41 O    ALA E  14      -8.800  19.730  -0.785  1.00120.33 LIG-0.29  OA
ENDBRANCH 38 40
ENDBRANCH 35 38
ENDBRANCH 32 34
ENDBRANCH 29 32
ENDBRANCH 26 28
ENDBRANCH 23 26
ENDBRANCH 1 22
TORSDOF 13
ENDMDL
MODEL 31
USER: ADFR SOLUTION from run 135
USER: SCORE 5.723239 LL:  -2.387 LR:  -4.457 RR:   0.000 FEB:  -0.579
USER: RMSD 5.642333
USER: SEED 134
USER: STATUS no improvement in best in 79 clusters for 5 generations
USER: GENES 15
USER: genes 0 Translation |==|  0.58316 0.24872 0.60514
USER: genes 1 Rotation |==|  0.74488 0.77892 0.55337 0.83075
USER: genes 2 Torsion [CB]-CA--N-[C] |==|  0.14363
USER: genes 3 Torsion [N]-C--CA-[N] |==|  0.41311
USER: genes 4 Torsion [C]-CA--N-[C] |==|  0.69233
USER: genes 5 Torsion [N]-C--CA-[N] |==|  0.14162
USER: genes 6 Torsion [C]-CA--N-[C] |==|  0.77309
USER: genes 7 Torsion [N]-C--CA-[N] |==|  0.49048
USER: genes 8 Torsion [N]-CA--C-[N] |==|  0.14321
USER: genes 9 Torsion [C]-N--CA-[CB] |==|  0.84734
USER: genes 10 Torsion [N]-CA--C-[N] |==|  0.37754
USER: genes 11 Torsion [C]-N--CA-[CB] |==|  0.16117
USER: genes 12 Torsion [N]-CA--C-[N] |==|  0.08414
USER: genes 13 Torsion [C]-N--CA-[C] |==|  0.72949
USER: genes 14 Torsion [N]-CA--C-[O] |==|  0.98344
ROOT
ATOM      1  CA  ALA E  11       0.651  19.106   3.087  1.00 85.35 LIG 0.17  C 
ATOM      2  CB  ALA E  11       1.504  18.140   3.912  1.00 80.46 LIG 0.04  C 
ENDROOT
BRANCH 1 3
ATOM      3  N   ALA E  11       1.075  20.481   3.326  1.00 87.15 LIG-0.35  N 
ATOM      4  C   ALA E  10       2.361  20.822   3.208  1.00 62.15 LIG 0.24  C 
ATOM      5 O    ALA E  10       3.198  20.071   2.705  1.00 65.72 LIG-0.27  OA
ATOM      6 H    ALA E  11       0.444  21.024   3.542  1.00 87.15 LIG 0.16  HD
BRANCH 4 7
ATOM      7  CA  ALA E  10       2.775  22.197   3.719  1.00 66.45 LIG 0.17  C 
ATOM      8  CB  ALA E  10       2.621  23.242   2.615  1.00 58.63 LIG 0.04  C 
BRANCH 7 9
ATOM      9  N   ALA E  10       4.143  22.204   4.216  1.00 75.43 LIG-0.35  N 
ATOM     10  C   ALA E   9       4.445  22.341   5.505  1.00 82.21 LIG 0.24  C 
ATOM     11 O    ALA E   9       3.598  22.509   6.390  1.00 73.75 LIG-0.27  OA
ATOM     12 H    ALA E  10       4.737  22.111   3.600  1.00 75.43 LIG 0.16  HD
BRANCH 10 13
ATOM     13  CA  ALA E   9       5.928  22.312   5.852  1.00 87.65 LIG 0.17  C 
ATOM     14  CB  ALA E   9       6.153  22.640   7.326  1.00 72.21 LIG 0.04  C 
BRANCH 13 15
ATOM     15  N   ALA E   9       6.610  23.264   4.984  1.00 84.24 LIG-0.35  N 
ATOM     16 H    ALA E   9       6.761  24.028   5.350  1.00 84.24 LIG 0.16  HD
ATOM     17  C   ALA E   8       6.960  22.965   3.740  1.00 61.40 LIG 0.26  C 
ATOM     18 O    ALA E   8       6.821  21.840   3.264  1.00 66.21 LIG-0.27  OA
BRANCH 17 19
ATOM     19  CA  ALA E   8       7.583  24.092   2.923  1.00 67.03 LIG 0.40  C 
ATOM     20  N   ALA E   8       8.003  23.598   1.578  1.00 60.26 LIG 0.61  N 
ATOM     21  CB  ALA E   8       6.609  25.256   2.781  1.00 64.64 LIG 0.06  C 
ENDBRANCH 17 19
ENDBRANCH 13 15
ENDBRANCH 10 13
ENDBRANCH 7 9
ENDBRANCH 4 7
ENDBRANCH 1 3
BRANCH 1 22
ATOM     22  C   ALA E  11      -0.826  18.913   3.409  1.00 81.78 LIG 0.24  C 
ATOM     23  N   ALA E  12      -1.691  19.762   2.858  1.00 82.91 LIG-0.35  N 
ATOM     24 H    ALA E  12      -1.493  20.339   2.251  1.00 82.91 LIG 0.16  HD
ATOM     25 O    ALA E  11      -1.191  18.005   4.165  1.00 89.30 LIG-0.27  OA
BRANCH 23 26
ATOM     26  CA  ALA E  12      -3.087  19.759   3.275  1.00 61.10 LIG 0.17  C 
ATOM     27  CB  ALA E  12      -3.696  18.356   3.128  1.00 65.27 LIG 0.04  C 
BRANCH 26 28
ATOM     28  C   ALA E  12      -3.217  20.248   4.708  1.00 54.59 LIG 0.24  C 
ATOM     29  N   ALA E  13      -4.211  21.111   4.916  1.00 64.78 LIG-0.35  N 
ATOM     30 H    ALA E  13      -4.784  21.335   4.314  1.00 64.78 LIG 0.16  HD
ATOM     31 O    ALA E  12      -2.472  19.832   5.600  1.00 69.11 LIG-0.27  OA
BRANCH 29 32
ATOM     32  CA  ALA E  13      -4.415  21.758   6.202  1.00 54.23 LIG 0.17  C 
ATOM     33  CB  ALA E  13      -3.161  22.538   6.599  1.00 56.27 LIG 0.04  C 
BRANCH 32 34
ATOM     34  C   ALA E  13      -5.590  22.719   6.187  1.00 65.29 LIG 0.24  C 
ATOM     35  N   ALA E  14      -6.573  22.400   5.353  1.00 85.74 LIG-0.35  N 
ATOM     36 H    ALA E  14      -6.545  21.722   4.825  1.00 85.74 LIG 0.16  HD
ATOM     37 O    ALA E  13      -5.637  23.688   6.950  1.00 75.52 LIG-0.27  OA
BRANCH 35 38
ATOM     38  CA  ALA E  14      -7.798  23.174   5.255  1.00 94.46 LIG 0.16  C 
ATOM     39  CB  ALA E  14      -8.229  23.284   3.810  1.00106.12 LIG 0.04  C 
BRANCH 38 40
ATOM     40  C   ALA E  14      -8.898  22.534   6.094  1.00 99.07 LIG 0.22  C 
ATOM     41 O    ALA E  14      -8.719  21.448   6.645  1.00120.33 LIG-0.29  OA
ENDBRANCH 38 40
ENDBRANCH 35 38
ENDBRANCH 32 34
ENDBRANCH 29 32
ENDBRANCH 26 28
ENDBRANCH 23 26
ENDBRANCH 1 22
TORSDOF 13
ENDMDL
MODEL 32
USER: ADFR SOLUTION from run 12
USER: SCORE 4.575000 LL:  -2.057 LR:  -4.443 RR:   0.000 FEB:  -0.565
USER: RMSD 4.893007
USER: SEED 937734
USER: STATUS no improvement in best in 32 clusters for 5 generations
USER: GENES 15
USER: genes 0 Translation |==|  0.58899 0.28245 0.57075
USER: genes 1 Rotation |==|  0.73816 0.73215 0.57628 0.86547
USER: genes 2 Torsion [CB]-CA--N-[C] |==|  0.13333
USER: genes 3 Torsion [N]-C--CA-[N] |==|  0.48819
USER: genes 4 Torsion [C]-CA--N-[C] |==|  0.76542
USER: genes 5 Torsion [N]-C--CA-[N] |==|  0.46092
USER: genes 6 Torsion [C]-CA--N-[C] |==|  0.83753
USER: genes 7 Torsion [N]-C--CA-[N] |==|  0.02391
USER: genes 8 Torsion [N]-CA--C-[N] |==|  0.53882
USER: genes 9 Torsion [C]-N--CA-[CB] |==|  0.80735
USER: genes 10 Torsion [N]-CA--C-[N] |==|  0.54093
USER: genes 11 Torsion [C]-N--CA-[CB] |==|  0.83786
USER: genes 12 Torsion [N]-CA--C-[N] |==|  0.40593
USER: genes 13 Torsion [C]-N--CA-[C] |==|  0.77062
USER: genes 14 Torsion [N]-CA--C-[O] |==|  0.97768
ROOT
ATOM      1  CA  ALA E  11       0.782  19.713   2.467  1.00 85.35 LIG 0.17  C 
ATOM      2  CB  ALA E  11       1.373  18.739   3.488  1.00 80.46 LIG 0.04  C 
ENDROOT
BRANCH 1 3
ATOM      3  N   ALA E  11       1.179  21.079   2.790  1.00 87.15 LIG-0.35  N 
ATOM      4  C   ALA E  10       2.455  21.366   3.062  1.00 62.15 LIG 0.24  C 
ATOM      5 O    ALA E  10       3.368  20.565   2.859  1.00 65.72 LIG-0.27  OA
ATOM      6 H    ALA E  11       0.539  21.654   2.788  1.00 87.15 LIG 0.16  HD
BRANCH 4 7
ATOM      7  CA  ALA E  10       2.759  22.744   3.639  1.00 66.45 LIG 0.17  C 
ATOM      8  CB  ALA E  10       2.348  23.836   2.652  1.00 58.63 LIG 0.04  C 
BRANCH 7 9
ATOM      9  N   ALA E  10       4.165  22.893   3.981  1.00 75.43 LIG-0.35  N 
ATOM     10  C   ALA E   9       4.677  22.484   5.140  1.00 82.21 LIG 0.24  C 
ATOM     11 O    ALA E   9       4.001  21.973   6.041  1.00 73.75 LIG-0.27  OA
ATOM     12 H    ALA E  10       4.634  23.269   3.366  1.00 75.43 LIG 0.16  HD
BRANCH 10 13
ATOM     13  CA  ALA E   9       6.172  22.705   5.327  1.00 87.65 LIG 0.17  C 
ATOM     14  CB  ALA E   9       6.981  21.754   4.448  1.00 72.21 LIG 0.04  C 
BRANCH 13 15
ATOM     15  N   ALA E   9       6.479  22.517   6.739  1.00 84.24 LIG-0.35  N 
ATOM     16 H    ALA E   9       7.059  21.900   6.894  1.00 84.24 LIG 0.16  HD
ATOM     17  C   ALA E   8       5.907  23.241   7.691  1.00 61.40 LIG 0.26  C 
ATOM     18 O    ALA E   8       5.153  24.180   7.448  1.00 66.21 LIG-0.27  OA
BRANCH 17 19
ATOM     19  CA  ALA E   8       6.260  22.868   9.128  1.00 67.03 LIG 0.40  C 
ATOM     20  N   ALA E   8       7.366  21.865   9.156  1.00 60.26 LIG 0.61  N 
ATOM     21  CB  ALA E   8       6.648  24.109   9.925  1.00 64.64 LIG 0.06  C 
ENDBRANCH 17 19
ENDBRANCH 13 15
ENDBRANCH 10 13
ENDBRANCH 7 9
ENDBRANCH 4 7
ENDBRANCH 1 3
BRANCH 1 22
ATOM     22  C   ALA E  11      -0.734  19.569   2.417  1.00 81.78 LIG 0.24  C 
ATOM     23  N   ALA E  12      -1.234  18.334   2.417  1.00 82.91 LIG-0.35  N 
ATOM     24 H    ALA E  12      -0.775  17.620   2.554  1.00 82.91 LIG 0.16  HD
ATOM     25 O    ALA E  11      -1.460  20.568   2.365  1.00 89.30 LIG-0.27  OA
BRANCH 23 26
ATOM     26  CA  ALA E  12      -2.654  18.119   2.174  1.00 61.10 LIG 0.17  C 
ATOM     27  CB  ALA E  12      -3.493  18.635   3.353  1.00 65.27 LIG 0.04  C 
BRANCH 26 28
ATOM     28  C   ALA E  12      -3.082  18.794   0.881  1.00 54.59 LIG 0.24  C 
ATOM     29  N   ALA E  13      -4.400  18.920   0.726  1.00 64.78 LIG-0.35  N 
ATOM     30 H    ALA E  13      -4.975  18.702   1.328  1.00 64.78 LIG 0.16  HD
ATOM     31 O    ALA E  12      -2.253  19.219   0.072  1.00 69.11 LIG-0.27  OA
BRANCH 29 32
ATOM     32  CA  ALA E  13      -4.987  19.447  -0.496  1.00 54.23 LIG 0.17  C 
ATOM     33  CB  ALA E  13      -4.455  20.855  -0.765  1.00 56.27 LIG 0.04  C 
BRANCH 32 34
ATOM     34  C   ALA E  13      -4.681  18.581  -1.705  1.00 65.29 LIG 0.24  C 
ATOM     35  N   ALA E  14      -5.641  18.529  -2.622  1.00 85.74 LIG-0.35  N 
ATOM     36 H    ALA E  14      -6.401  18.920  -2.535  1.00 85.74 LIG 0.16  HD
ATOM     37 O    ALA E  13      -3.588  18.025  -1.836  1.00 75.52 LIG-0.27  OA
BRANCH 35 38
ATOM     38  CA  ALA E  14      -5.492  17.798  -3.867  1.00 94.46 LIG 0.16  C 
ATOM     39  CB  ALA E  14      -6.849  17.400  -4.402  1.00106.12 LIG 0.04  C 
BRANCH 38 40
ATOM     40  C   ALA E  14      -4.741  18.642  -4.890  1.00 99.07 LIG 0.22  C 
ATOM     41 O    ALA E  14      -4.481  19.824  -4.664  1.00120.33 LIG-0.29  OA
ENDBRANCH 38 40
ENDBRANCH 35 38
ENDBRANCH 32 34
ENDBRANCH 29 32
ENDBRANCH 26 28
ENDBRANCH 23 26
ENDBRANCH 1 22
TORSDOF 13
ENDMDL
MODEL 33
USER: ADFR SOLUTION from run 67
USER: SCORE 5.554967 LL:  -2.734 LR:  -4.444 RR:   0.000 FEB:  -0.566
USER: RMSD 5.111701
USER: SEED 66
USER: STATUS searching
USER: GENES 15
USER: genes 0 Translation |==|  0.66233 0.35716 0.60484
USER: genes 1 Rotation |==|  0.80920 0.64812 0.58745 0.85328
USER: genes 2 Torsion [CB]-CA--N-[C] |==|  0.13442
USER: genes 3 Torsion [N]-C--CA-[N] |==|  0.05054
USER: genes 4 Torsion [C]-CA--N-[C] |==|  0.63425
USER: genes 5 Torsion [N]-C--CA-[N] |==|  0.51642
USER: genes 6 Torsion [C]-CA--N-[C] |==|  0.77326
USER: genes 7 Torsion [N]-C--CA-[N] |==|  0.31282
USER: genes 8 Torsion [N]-CA--C-[N] |==|  0.08277
USER: genes 9 Torsion [C]-N--CA-[CB] |==|  0.18162
USER: genes 10 Torsion [N]-CA--C-[N] |==|  0.14444
USER: genes 11 Torsion [C]-N--CA-[CB] |==|  0.17174
USER: genes 12 Torsion [N]-CA--C-[N] |==|  0.10551
USER: genes 13 Torsion [C]-N--CA-[C] |==|  0.73595
USER: genes 14 Torsion [N]-CA--C-[O] |==|  0.95052
ROOT
ATOM      1  CA  ALA E  11       2.432  21.058   3.081  1.00 85.35 LIG 0.17  C 
ATOM      2  CB  ALA E  11       2.544  19.720   3.815  1.00 80.46 LIG 0.04  C 
ENDROOT
BRANCH 1 3
ATOM      3  N   ALA E  11       3.027  22.122   3.883  1.00 87.15 LIG-0.35  N 
ATOM      4  C   ALA E  10       4.238  21.964   4.424  1.00 62.15 LIG 0.24  C 
ATOM      5 O    ALA E  10       4.981  21.031   4.115  1.00 65.72 LIG-0.27  OA
ATOM      6 H    ALA E  11       2.542  22.827   3.969  1.00 87.15 LIG 0.16  HD
BRANCH 4 7
ATOM      7  CA  ALA E  10       4.689  22.994   5.454  1.00 66.45 LIG 0.17  C 
ATOM      8  CB  ALA E  10       5.448  22.311   6.590  1.00 58.63 LIG 0.04  C 
BRANCH 7 9
ATOM      9  N   ALA E  10       3.568  23.749   5.995  1.00 75.43 LIG-0.35  N 
ATOM     10  C   ALA E   9       3.567  25.077   6.088  1.00 82.21 LIG 0.24  C 
ATOM     11 O    ALA E   9       4.525  25.784   5.757  1.00 73.75 LIG-0.27  OA
ATOM     12 H    ALA E  10       2.909  23.258   6.248  1.00 75.43 LIG 0.16  HD
BRANCH 10 13
ATOM     13  CA  ALA E   9       2.306  25.706   6.666  1.00 87.65 LIG 0.17  C 
ATOM     14  CB  ALA E   9       1.060  25.201   5.942  1.00 72.21 LIG 0.04  C 
BRANCH 13 15
ATOM     15  N   ALA E   9       2.437  27.153   6.556  1.00 84.24 LIG-0.35  N 
ATOM     16 H    ALA E   9       2.032  27.492   5.876  1.00 84.24 LIG 0.16  HD
ATOM     17  C   ALA E   8       3.122  27.871   7.435  1.00 61.40 LIG 0.26  C 
ATOM     18 O    ALA E   8       3.614  27.384   8.451  1.00 66.21 LIG-0.27  OA
BRANCH 17 19
ATOM     19  CA  ALA E   8       3.247  29.363   7.139  1.00 67.03 LIG 0.40  C 
ATOM     20  N   ALA E   8       2.494  30.165   8.149  1.00 60.26 LIG 0.61  N 
ATOM     21  CB  ALA E   8       4.712  29.784   7.109  1.00 64.64 LIG 0.06  C 
ENDBRANCH 17 19
ENDBRANCH 13 15
ENDBRANCH 10 13
ENDBRANCH 7 9
ENDBRANCH 4 7
ENDBRANCH 1 3
BRANCH 1 22
ATOM     22  C   ALA E  11       0.976  21.357   2.748  1.00 81.78 LIG 0.24  C 
ATOM     23  N   ALA E  12       0.620  22.636   2.641  1.00 82.91 LIG-0.35  N 
ATOM     24 H    ALA E  12       1.169  23.298   2.637  1.00 82.91 LIG 0.16  HD
ATOM     25 O    ALA E  11       0.163  20.437   2.598  1.00 89.30 LIG-0.27  OA
BRANCH 23 26
ATOM     26  CA  ALA E  12      -0.786  22.998   2.520  1.00 61.10 LIG 0.17  C 
ATOM     27  CB  ALA E  12      -1.554  22.638   3.801  1.00 65.27 LIG 0.04  C 
BRANCH 26 28
ATOM     28  C   ALA E  12      -0.931  24.479   2.212  1.00 54.59 LIG 0.24  C 
ATOM     29  N   ALA E  13      -0.211  24.907   1.175  1.00 64.78 LIG-0.35  N 
ATOM     30 H    ALA E  13       0.253  24.389   0.669  1.00 64.78 LIG 0.16  HD
ATOM     31 O    ALA E  12      -1.692  25.200   2.863  1.00 69.11 LIG-0.27  OA
BRANCH 29 32
ATOM     32  CA  ALA E  13      -0.149  26.312   0.806  1.00 54.23 LIG 0.17  C 
ATOM     33  CB  ALA E  13       0.461  27.126   1.948  1.00 56.27 LIG 0.04  C 
BRANCH 32 34
ATOM     34  C   ALA E  13       0.681  26.547  -0.444  1.00 65.29 LIG 0.24  C 
ATOM     35  N   ALA E  14       0.555  25.622  -1.389  1.00 85.74 LIG-0.35  N 
ATOM     36 H    ALA E  14       0.073  24.916  -1.301  1.00 85.74 LIG 0.16  HD
ATOM     37 O    ALA E  13       1.367  27.563  -0.577  1.00 75.52 LIG-0.27  OA
BRANCH 35 38
ATOM     38  CA  ALA E  14       1.229  25.719  -2.672  1.00 94.46 LIG 0.16  C 
ATOM     39  CB  ALA E  14       1.687  24.351  -3.124  1.00106.12 LIG 0.04  C 
BRANCH 38 40
ATOM     40  C   ALA E  14       0.303  26.343  -3.710  1.00 99.07 LIG 0.22  C 
ATOM     41 O    ALA E  14      -0.913  26.388  -3.524  1.00120.33 LIG-0.29  OA
ENDBRANCH 38 40
ENDBRANCH 35 38
ENDBRANCH 32 34
ENDBRANCH 29 32
ENDBRANCH 26 28
ENDBRANCH 23 26
ENDBRANCH 1 22
TORSDOF 13
ENDMDL
MODEL 34
USER: ADFR SOLUTION from run 67
USER: SCORE 5.355451 LL:  -2.530 LR:  -4.425 RR:   0.000 FEB:  -0.547
USER: RMSD 4.002385
USER: SEED 66
USER: STATUS searching
USER: GENES 15
USER: genes 0 Translation |==|  0.66244 0.35641 0.60485
USER: genes 1 Rotation |==|  0.80922 0.64806 0.58754 0.85327
USER: genes 2 Torsion [CB]-CA--N-[C] |==|  0.13447
USER: genes 3 Torsion [N]-C--CA-[N] |==|  0.05061
USER: genes 4 Torsion [C]-CA--N-[C] |==|  0.63425
USER: genes 5 Torsion [N]-C--CA-[N] |==|  0.51642
USER: genes 6 Torsion [C]-CA--N-[C] |==|  0.77312
USER: genes 7 Torsion [N]-C--CA-[N] |==|  0.31908
USER: genes 8 Torsion [N]-CA--C-[N] |==|  0.08268
USER: genes 9 Torsion [C]-N--CA-[CB] |==|  0.51112
USER: genes 10 Torsion [N]-CA--C-[N] |==|  0.42148
USER: genes 11 Torsion [C]-N--CA-[CB] |==|  0.17167
USER: genes 12 Torsion [N]-CA--C-[N] |==|  0.10141
USER: genes 13 Torsion [C]-N--CA-[C] |==|  0.54788
USER: genes 14 Torsion [N]-CA--C-[O] |==|  0.95052
ROOT
ATOM      1  CA  ALA E  11       2.435  21.044   3.081  1.00 85.35 LIG 0.17  C 
ATOM      2  CB  ALA E  11       2.546  19.706   3.815  1.00 80.46 LIG 0.04  C 
ENDROOT
BRANCH 1 3
ATOM      3  N   ALA E  11       3.029  22.108   3.884  1.00 87.15 LIG-0.35  N 
ATOM      4  C   ALA E  10       4.240  21.950   4.425  1.00 62.15 LIG 0.24  C 
ATOM      5 O    ALA E  10       4.983  21.018   4.116  1.00 65.72 LIG-0.27  OA
ATOM      6 H    ALA E  11       2.544  22.813   3.970  1.00 87.15 LIG 0.16  HD
BRANCH 4 7
ATOM      7  CA  ALA E  10       4.690  22.980   5.455  1.00 66.45 LIG 0.17  C 
ATOM      8  CB  ALA E  10       5.451  22.297   6.591  1.00 58.63 LIG 0.04  C 
BRANCH 7 9
ATOM      9  N   ALA E  10       3.570  23.734   5.996  1.00 75.43 LIG-0.35  N 
ATOM     10  C   ALA E   9       3.567  25.062   6.090  1.00 82.21 LIG 0.24  C 
ATOM     11 O    ALA E   9       4.525  25.770   5.760  1.00 73.75 LIG-0.27  OA
ATOM     12 H    ALA E  10       2.911  23.243   6.250  1.00 75.43 LIG 0.16  HD
BRANCH 10 13
ATOM     13  CA  ALA E   9       2.306  25.690   6.669  1.00 87.65 LIG 0.17  C 
ATOM     14  CB  ALA E   9       1.061  25.184   5.944  1.00 72.21 LIG 0.04  C 
BRANCH 13 15
ATOM     15  N   ALA E   9       2.436  27.137   6.560  1.00 84.24 LIG-0.35  N 
ATOM     16 H    ALA E   9       2.032  27.476   5.880  1.00 84.24 LIG 0.16  HD
ATOM     17  C   ALA E   8       3.120  27.856   7.439  1.00 61.40 LIG 0.26  C 
ATOM     18 O    ALA E   8       3.612  27.369   8.455  1.00 66.21 LIG-0.27  OA
BRANCH 17 19
ATOM     19  CA  ALA E   8       3.244  29.347   7.144  1.00 67.03 LIG 0.40  C 
ATOM     20  N   ALA E   8       2.536  30.151   8.185  1.00 60.26 LIG 0.61  N 
ATOM     21  CB  ALA E   8       4.710  29.759   7.061  1.00 64.64 LIG 0.06  C 
ENDBRANCH 17 19
ENDBRANCH 13 15
ENDBRANCH 10 13
ENDBRANCH 7 9
ENDBRANCH 4 7
ENDBRANCH 1 3
BRANCH 1 22
ATOM     22  C   ALA E  11       0.978  21.343   2.748  1.00 81.78 LIG 0.24  C 
ATOM     23  N   ALA E  12       0.622  22.622   2.642  1.00 82.91 LIG-0.35  N 
ATOM     24 H    ALA E  12       1.171  23.285   2.638  1.00 82.91 LIG 0.16  HD
ATOM     25 O    ALA E  11       0.166  20.423   2.597  1.00 89.30 LIG-0.27  OA
BRANCH 23 26
ATOM     26  CA  ALA E  12      -0.784  22.984   2.520  1.00 61.10 LIG 0.17  C 
ATOM     27  CB  ALA E  12      -0.941  24.498   2.313  1.00 65.27 LIG 0.04  C 
BRANCH 26 28
ATOM     28  C   ALA E  12      -1.434  22.220   1.377  1.00 54.59 LIG 0.24  C 
ATOM     29  N   ALA E  13      -2.740  22.000   1.524  1.00 64.78 LIG-0.35  N 
ATOM     30 H    ALA E  13      -3.207  22.314   2.175  1.00 64.78 LIG 0.16  HD
ATOM     31 O    ALA E  12      -0.787  21.876   0.384  1.00 69.11 LIG-0.27  OA
BRANCH 29 32
ATOM     32  CA  ALA E  13      -3.498  21.197   0.578  1.00 54.23 LIG 0.17  C 
ATOM     33  CB  ALA E  13      -2.956  19.768   0.555  1.00 56.27 LIG 0.04  C 
BRANCH 32 34
ATOM     34  C   ALA E  13      -4.976  21.141   0.920  1.00 65.29 LIG 0.24  C 
ATOM     35  N   ALA E  14      -5.486  22.263   1.416  1.00 85.74 LIG-0.35  N 
ATOM     36 H    ALA E  14      -5.019  22.967   1.573  1.00 85.74 LIG 0.16  HD
ATOM     37 O    ALA E  13      -5.651  20.136   0.688  1.00 75.52 LIG-0.27  OA
BRANCH 35 38
ATOM     38  CA  ALA E  14      -6.894  22.405   1.741  1.00 94.46 LIG 0.16  C 
ATOM     39  CB  ALA E  14      -7.211  21.660   3.017  1.00106.12 LIG 0.04  C 
BRANCH 38 40
ATOM     40  C   ALA E  14      -7.261  23.879   1.876  1.00 99.07 LIG 0.22  C 
ATOM     41 O    ALA E  14      -6.389  24.733   2.040  1.00120.33 LIG-0.29  OA
ENDBRANCH 38 40
ENDBRANCH 35 38
ENDBRANCH 32 34
ENDBRANCH 29 32
ENDBRANCH 26 28
ENDBRANCH 23 26
ENDBRANCH 1 22
TORSDOF 13
ENDMDL
MODEL 35
USER: ADFR SOLUTION from run 12
USER: SCORE 4.745682 LL:  -2.176 LR:  -4.406 RR:   0.000 FEB:  -0.528
USER: RMSD 4.083929
USER: SEED 937734
USER: STATUS no improvement in best in 32 clusters for 5 generations
USER: GENES 15
USER: genes 0 Translation |==|  0.58899 0.28245 0.57075
USER: genes 1 Rotation |==|  0.73816 0.73215 0.57628 0.86547
USER: genes 2 Torsion [CB]-CA--N-[C] |==|  0.13333
USER: genes 3 Torsion [N]-C--CA-[N] |==|  0.48871
USER: genes 4 Torsion [C]-CA--N-[C] |==|  0.76542
USER: genes 5 Torsion [N]-C--CA-[N] |==|  0.46093
USER: genes 6 Torsion [C]-CA--N-[C] |==|  0.83755
USER: genes 7 Torsion [N]-C--CA-[N] |==|  0.02903
USER: genes 8 Torsion [N]-CA--C-[N] |==|  0.52881
USER: genes 9 Torsion [C]-N--CA-[CB] |==|  0.81667
USER: genes 10 Torsion [N]-CA--C-[N] |==|  0.03852
USER: genes 11 Torsion [C]-N--CA-[CB] |==|  0.84824
USER: genes 12 Torsion [N]-CA--C-[N] |==|  0.39557
USER: genes 13 Torsion [C]-N--CA-[C] |==|  0.77047
USER: genes 14 Torsion [N]-CA--C-[O] |==|  0.97780
ROOT
ATOM      1  CA  ALA E  11       0.782  19.713   2.467  1.00 85.35 LIG 0.17  C 
ATOM      2  CB  ALA E  11       1.373  18.739   3.488  1.00 80.46 LIG 0.04  C 
ENDROOT
BRANCH 1 3
ATOM      3  N   ALA E  11       1.179  21.079   2.790  1.00 87.15 LIG-0.35  N 
ATOM      4  C   ALA E  10       2.455  21.366   3.062  1.00 62.15 LIG 0.24  C 
ATOM      5 O    ALA E  10       3.368  20.565   2.859  1.00 65.72 LIG-0.27  OA
ATOM      6 H    ALA E  11       0.539  21.654   2.788  1.00 87.15 LIG 0.16  HD
BRANCH 4 7
ATOM      7  CA  ALA E  10       2.759  22.744   3.639  1.00 66.45 LIG 0.17  C 
ATOM      8  CB  ALA E  10       2.344  23.836   2.654  1.00 58.63 LIG 0.04  C 
BRANCH 7 9
ATOM      9  N   ALA E  10       4.166  22.894   3.977  1.00 75.43 LIG-0.35  N 
ATOM     10  C   ALA E   9       4.682  22.485   5.134  1.00 82.21 LIG 0.24  C 
ATOM     11 O    ALA E   9       4.009  21.973   6.037  1.00 73.75 LIG-0.27  OA
ATOM     12 H    ALA E  10       4.633  23.272   3.361  1.00 75.43 LIG 0.16  HD
BRANCH 10 13
ATOM     13  CA  ALA E   9       6.177  22.708   5.317  1.00 87.65 LIG 0.17  C 
ATOM     14  CB  ALA E   9       6.984  21.759   4.435  1.00 72.21 LIG 0.04  C 
BRANCH 13 15
ATOM     15  N   ALA E   9       6.489  22.519   6.728  1.00 84.24 LIG-0.35  N 
ATOM     16 H    ALA E   9       7.070  21.903   6.881  1.00 84.24 LIG 0.16  HD
ATOM     17  C   ALA E   8       5.919  23.242   7.683  1.00 61.40 LIG 0.26  C 
ATOM     18 O    ALA E   8       5.162  24.180   7.442  1.00 66.21 LIG-0.27  OA
BRANCH 17 19
ATOM     19  CA  ALA E   8       6.276  22.869   9.118  1.00 67.03 LIG 0.40  C 
ATOM     20  N   ALA E   8       7.413  21.901   9.143  1.00 60.26 LIG 0.61  N 
ATOM     21  CB  ALA E   8       6.621  24.114   9.927  1.00 64.64 LIG 0.06  C 
ENDBRANCH 17 19
ENDBRANCH 13 15
ENDBRANCH 10 13
ENDBRANCH 7 9
ENDBRANCH 4 7
ENDBRANCH 1 3
BRANCH 1 22
ATOM     22  C   ALA E  11      -0.734  19.569   2.417  1.00 81.78 LIG 0.24  C 
ATOM     23  N   ALA E  12      -1.232  18.336   2.343  1.00 82.91 LIG-0.35  N 
ATOM     24 H    ALA E  12      -0.770  17.615   2.432  1.00 82.91 LIG 0.16  HD
ATOM     25 O    ALA E  11      -1.462  20.568   2.432  1.00 89.30 LIG-0.27  OA
BRANCH 23 26
ATOM     26  CA  ALA E  12      -2.653  18.132   2.095  1.00 61.10 LIG 0.17  C 
ATOM     27  CB  ALA E  12      -3.490  18.649   3.275  1.00 65.27 LIG 0.04  C 
BRANCH 26 28
ATOM     28  C   ALA E  12      -3.072  18.818   0.805  1.00 54.59 LIG 0.24  C 
ATOM     29  N   ALA E  13      -2.063  19.201   0.022  1.00 64.78 LIG-0.35  N 
ATOM     30 H    ALA E  13      -1.238  19.025   0.187  1.00 64.78 LIG 0.16  HD
ATOM     31 O    ALA E  12      -4.262  18.962   0.510  1.00 69.11 LIG-0.27  OA
BRANCH 29 32
ATOM     32  CA  ALA E  13      -2.279  19.963  -1.197  1.00 54.23 LIG 0.17  C 
ATOM     33  CB  ALA E  13      -3.269  19.229  -2.103  1.00 56.27 LIG 0.04  C 
BRANCH 32 34
ATOM     34  C   ALA E  13      -2.824  21.353  -0.923  1.00 65.29 LIG 0.24  C 
ATOM     35  N   ALA E  14      -2.356  22.312  -1.714  1.00 85.74 LIG-0.35  N 
ATOM     36 H    ALA E  14      -1.759  22.179  -2.318  1.00 85.74 LIG 0.16  HD
ATOM     37 O    ALA E  13      -3.687  21.546  -0.063  1.00 75.52 LIG-0.27  OA
BRANCH 35 38
ATOM     38  CA  ALA E  14      -2.814  23.687  -1.631  1.00 94.46 LIG 0.16  C 
ATOM     39  CB  ALA E  14      -1.750  24.622  -2.159  1.00106.12 LIG 0.04  C 
BRANCH 38 40
ATOM     40  C   ALA E  14      -4.113  23.861  -2.409  1.00 99.07 LIG 0.22  C 
ATOM     41 O    ALA E  14      -4.552  22.952  -3.114  1.00120.33 LIG-0.29  OA
ENDBRANCH 38 40
ENDBRANCH 35 38
ENDBRANCH 32 34
ENDBRANCH 29 32
ENDBRANCH 26 28
ENDBRANCH 23 26
ENDBRANCH 1 22
TORSDOF 13
ENDMDL
MODEL 36
USER: ADFR SOLUTION from run 37
USER: SCORE 6.101777 LL:  -2.739 LR:  -4.414 RR:   0.000 FEB:  -0.536
USER: RMSD 4.243169
USER: SEED 36
USER: STATUS searching
USER: GENES 15
USER: genes 0 Translation |==|  0.65674 0.33969 0.53770
USER: genes 1 Rotation |==|  0.87096 0.75020 0.45991 0.71951
USER: genes 2 Torsion [CB]-CA--N-[C] |==|  0.83657
USER: genes 3 Torsion [N]-C--CA-[N] |==|  0.32933
USER: genes 4 Torsion [C]-CA--N-[C] |==|  0.85555
USER: genes 5 Torsion [N]-C--CA-[N] |==|  0.00341
USER: genes 6 Torsion [C]-CA--N-[C] |==|  0.78285
USER: genes 7 Torsion [N]-C--CA-[N] |==|  0.27134
USER: genes 8 Torsion [N]-CA--C-[N] |==|  0.28123
USER: genes 9 Torsion [C]-N--CA-[CB] |==|  0.16400
USER: genes 10 Torsion [N]-CA--C-[N] |==|  0.08922
USER: genes 11 Torsion [C]-N--CA-[CB] |==|  0.84336
USER: genes 12 Torsion [N]-CA--C-[N] |==|  0.40978
USER: genes 13 Torsion [C]-N--CA-[C] |==|  0.76913
USER: genes 14 Torsion [N]-CA--C-[O] |==|  0.97400
ROOT
ATOM      1  CA  ALA E  11       2.307  20.743   1.873  1.00 85.35 LIG 0.17  C 
ATOM      2  CB  ALA E  11       2.648  19.255   1.962  1.00 80.46 LIG 0.04  C 
ENDROOT
BRANCH 1 3
ATOM      3  N   ALA E  11       3.485  21.548   2.177  1.00 87.15 LIG-0.35  N 
ATOM      4  C   ALA E  10       4.102  21.424   3.354  1.00 62.15 LIG 0.24  C 
ATOM      5 O    ALA E  10       3.847  20.509   4.139  1.00 65.72 LIG-0.27  OA
ATOM      6 H    ALA E  11       3.731  22.085   1.551  1.00 87.15 LIG 0.16  HD
BRANCH 4 7
ATOM      7  CA  ALA E  10       5.158  22.465   3.709  1.00 66.45 LIG 0.17  C 
ATOM      8  CB  ALA E  10       6.519  21.797   3.899  1.00 58.63 LIG 0.04  C 
BRANCH 7 9
ATOM      9  N   ALA E  10       4.805  23.212   4.907  1.00 75.43 LIG-0.35  N 
ATOM     10  C   ALA E   9       3.629  23.815   5.065  1.00 82.21 LIG 0.24  C 
ATOM     11 O    ALA E   9       2.746  23.824   4.200  1.00 73.75 LIG-0.27  OA
ATOM     12 H    ALA E  10       5.426  23.228   5.502  1.00 75.43 LIG 0.16  HD
BRANCH 10 13
ATOM     13  CA  ALA E   9       3.421  24.541   6.388  1.00 87.65 LIG 0.17  C 
ATOM     14  CB  ALA E   9       3.067  26.008   6.158  1.00 72.21 LIG 0.04  C 
BRANCH 13 15
ATOM     15  N   ALA E   9       4.643  24.404   7.170  1.00 84.24 LIG-0.35  N 
ATOM     16 H    ALA E   9       5.144  25.103   7.165  1.00 84.24 LIG 0.16  HD
ATOM     17  C   ALA E   8       4.943  23.292   7.827  1.00 61.40 LIG 0.26  C 
ATOM     18 O    ALA E   8       4.173  22.336   7.901  1.00 66.21 LIG-0.27  OA
BRANCH 17 19
ATOM     19  CA  ALA E   8       6.298  23.264   8.527  1.00 67.03 LIG 0.40  C 
ATOM     20  N   ALA E   8       6.151  23.602   9.975  1.00 60.26 LIG 0.61  N 
ATOM     21  CB  ALA E   8       6.960  21.901   8.364  1.00 64.64 LIG 0.06  C 
ENDBRANCH 17 19
ENDBRANCH 13 15
ENDBRANCH 10 13
ENDBRANCH 7 9
ENDBRANCH 4 7
ENDBRANCH 1 3
BRANCH 1 22
ATOM     22  C   ALA E  11       1.148  21.075   2.805  1.00 81.78 LIG 0.24  C 
ATOM     23  N   ALA E  12       0.186  21.866   2.333  1.00 82.91 LIG-0.35  N 
ATOM     24 H    ALA E  12       0.113  22.112   1.511  1.00 82.91 LIG 0.16  HD
ATOM     25 O    ALA E  11       1.121  20.631   3.959  1.00 89.30 LIG-0.27  OA
BRANCH 23 26
ATOM     26  CA  ALA E  12      -0.844  22.380   3.225  1.00 61.10 LIG 0.17  C 
ATOM     27  CB  ALA E  12      -0.220  23.205   4.360  1.00 65.27 LIG 0.04  C 
BRANCH 26 28
ATOM     28  C   ALA E  12      -1.850  23.217   2.451  1.00 54.59 LIG 0.24  C 
ATOM     29  N   ALA E  13      -2.055  22.824   1.194  1.00 64.78 LIG-0.35  N 
ATOM     30 H    ALA E  13      -1.704  22.117   0.851  1.00 64.78 LIG 0.16  HD
ATOM     31 O    ALA E  12      -2.447  24.158   2.981  1.00 69.11 LIG-0.27  OA
BRANCH 29 32
ATOM     32  CA  ALA E  13      -2.904  23.571   0.280  1.00 54.23 LIG 0.17  C 
ATOM     33  CB  ALA E  13      -4.302  23.730   0.879  1.00 56.27 LIG 0.04  C 
BRANCH 32 34
ATOM     34  C   ALA E  13      -2.354  24.953  -0.022  1.00 65.29 LIG 0.24  C 
ATOM     35  N   ALA E  14      -2.612  25.412  -1.242  1.00 85.74 LIG-0.35  N 
ATOM     36 H    ALA E  14      -3.027  24.957  -1.841  1.00 85.74 LIG 0.16  HD
ATOM     37 O    ALA E  13      -1.765  25.612   0.838  1.00 75.52 LIG-0.27  OA
BRANCH 35 38
ATOM     38  CA  ALA E  14      -2.214  26.738  -1.679  1.00 94.46 LIG 0.16  C 
ATOM     39  CB  ALA E  14      -2.061  26.766  -3.183  1.00106.12 LIG 0.04  C 
BRANCH 38 40
ATOM     40  C   ALA E  14      -3.235  27.775  -1.225  1.00 99.07 LIG 0.22  C 
ATOM     41 O    ALA E  14      -4.310  27.428  -0.734  1.00120.33 LIG-0.29  OA
ENDBRANCH 38 40
ENDBRANCH 35 38
ENDBRANCH 32 34
ENDBRANCH 29 32
ENDBRANCH 26 28
ENDBRANCH 23 26
ENDBRANCH 1 22
TORSDOF 13
ENDMDL
MODEL 37
USER: ADFR SOLUTION from run 67
USER: SCORE 5.826584 LL:  -2.769 LR:  -4.399 RR:   0.000 FEB:  -0.521
USER: RMSD 4.819462
USER: SEED 66
USER: STATUS searching
USER: GENES 15
USER: genes 0 Translation |==|  0.63949 0.32021 0.61628
USER: genes 1 Rotation |==|  0.81729 0.72784 0.58068 0.80151
USER: genes 2 Torsion [CB]-CA--N-[C] |==|  0.15285
USER: genes 3 Torsion [N]-C--CA-[N] |==|  0.01903
USER: genes 4 Torsion [C]-CA--N-[C] |==|  0.78701
USER: genes 5 Torsion [N]-C--CA-[N] |==|  0.36111
USER: genes 6 Torsion [C]-CA--N-[C] |==|  0.83614
USER: genes 7 Torsion [N]-C--CA-[N] |==|  0.28610
USER: genes 8 Torsion [N]-CA--C-[N] |==|  0.61746
USER: genes 9 Torsion [C]-N--CA-[CB] |==|  0.52503
USER: genes 10 Torsion [N]-CA--C-[N] |==|  0.38973
USER: genes 11 Torsion [C]-N--CA-[CB] |==|  0.85386
USER: genes 12 Torsion [N]-CA--C-[N] |==|  0.38520
USER: genes 13 Torsion [C]-N--CA-[C] |==|  0.17246
USER: genes 14 Torsion [N]-CA--C-[O] |==|  0.07271
ROOT
ATOM      1  CA  ALA E  11       1.918  20.393   3.287  1.00 85.35 LIG 0.17  C 
ATOM      2  CB  ALA E  11       2.502  19.073   3.794  1.00 80.46 LIG 0.04  C 
ENDROOT
BRANCH 1 3
ATOM      3  N   ALA E  11       2.523  21.514   3.997  1.00 87.15 LIG-0.35  N 
ATOM      4  C   ALA E  10       3.850  21.662   4.022  1.00 62.15 LIG 0.24  C 
ATOM      5 O    ALA E  10       4.600  21.003   3.300  1.00 65.72 LIG-0.27  OA
ATOM      6 H    ALA E  11       1.966  22.046   4.380  1.00 87.15 LIG 0.16  HD
BRANCH 4 7
ATOM      7  CA  ALA E  10       4.426  22.693   4.987  1.00 66.45 LIG 0.17  C 
ATOM      8  CB  ALA E  10       5.539  22.069   5.828  1.00 58.63 LIG 0.04  C 
BRANCH 7 9
ATOM      9  N   ALA E  10       3.404  23.253   5.859  1.00 75.43 LIG-0.35  N 
ATOM     10  C   ALA E   9       2.528  24.170   5.453  1.00 82.21 LIG 0.24  C 
ATOM     11 O    ALA E   9       2.524  24.651   4.315  1.00 73.75 LIG-0.27  OA
ATOM     12 H    ALA E  10       3.420  22.937   6.659  1.00 75.43 LIG 0.16  HD
BRANCH 10 13
ATOM     13  CA  ALA E   9       1.518  24.636   6.493  1.00 87.65 LIG 0.17  C 
ATOM     14  CB  ALA E   9       0.127  24.084   6.192  1.00 72.21 LIG 0.04  C 
BRANCH 13 15
ATOM     15  N   ALA E   9       1.524  26.093   6.501  1.00 84.24 LIG-0.35  N 
ATOM     16 H    ALA E   9       0.761  26.449   6.322  1.00 84.24 LIG 0.16  HD
ATOM     17  C   ALA E   8       2.617  26.796   6.762  1.00 61.40 LIG 0.26  C 
ATOM     18 O    ALA E   8       3.676  26.275   7.107  1.00 66.21 LIG-0.27  OA
BRANCH 17 19
ATOM     19  CA  ALA E   8       2.491  28.312   6.643  1.00 67.03 LIG 0.40  C 
ATOM     20  N   ALA E   8       2.390  28.940   7.995  1.00 60.26 LIG 0.61  N 
ATOM     21  CB  ALA E   8       3.674  28.892   5.875  1.00 64.64 LIG 0.06  C 
ENDBRANCH 17 19
ENDBRANCH 13 15
ENDBRANCH 10 13
ENDBRANCH 7 9
ENDBRANCH 4 7
ENDBRANCH 1 3
BRANCH 1 22
ATOM     22  C   ALA E  11       0.402  20.390   3.435  1.00 81.78 LIG 0.24  C 
ATOM     23  N   ALA E  12      -0.192  19.219   3.657  1.00 82.91 LIG-0.35  N 
ATOM     24 H    ALA E  12       0.222  18.485   3.832  1.00 82.91 LIG 0.16  HD
ATOM     25 O    ALA E  11      -0.242  21.442   3.338  1.00 89.30 LIG-0.27  OA
BRANCH 23 26
ATOM     26  CA  ALA E  12      -1.644  19.113   3.614  1.00 61.10 LIG 0.17  C 
ATOM     27  CB  ALA E  12      -2.106  17.737   4.116  1.00 65.27 LIG 0.04  C 
BRANCH 26 28
ATOM     28  C   ALA E  12      -2.284  20.221   4.437  1.00 54.59 LIG 0.24  C 
ATOM     29  N   ALA E  13      -3.378  20.757   3.897  1.00 64.78 LIG-0.35  N 
ATOM     30 H    ALA E  13      -3.744  20.469   3.174  1.00 64.78 LIG 0.16  HD
ATOM     31 O    ALA E  12      -1.828  20.552   5.535  1.00 69.11 LIG-0.27  OA
BRANCH 29 32
ATOM     32  CA  ALA E  13      -4.056  21.895   4.496  1.00 54.23 LIG 0.17  C 
ATOM     33  CB  ALA E  13      -4.359  21.607   5.967  1.00 56.27 LIG 0.04  C 
BRANCH 32 34
ATOM     34  C   ALA E  13      -3.230  23.167   4.419  1.00 65.29 LIG 0.24  C 
ATOM     35  N   ALA E  14      -3.909  24.266   4.112  1.00 85.74 LIG-0.35  N 
ATOM     36 H    ALA E  14      -4.749  24.269   3.929  1.00 85.74 LIG 0.16  HD
ATOM     37 O    ALA E  13      -2.026  23.168   4.689  1.00 75.52 LIG-0.27  OA
BRANCH 35 38
ATOM     38  CA  ALA E  14      -3.289  25.578   4.055  1.00 94.46 LIG 0.16  C 
ATOM     39  CB  ALA E  14      -2.706  25.936   5.402  1.00106.12 LIG 0.04  C 
BRANCH 38 40
ATOM     40  C   ALA E  14      -2.209  25.607   2.979  1.00 99.07 LIG 0.22  C 
ATOM     41 O    ALA E  14      -2.262  24.848   2.012  1.00120.33 LIG-0.29  OA
ENDBRANCH 38 40
ENDBRANCH 35 38
ENDBRANCH 32 34
ENDBRANCH 29 32
ENDBRANCH 26 28
ENDBRANCH 23 26
ENDBRANCH 1 22
TORSDOF 13
ENDMDL
MODEL 38
USER: ADFR SOLUTION from run 180
USER: SCORE 5.803693 LL:  -3.245 LR:  -4.399 RR:   0.000 FEB:  -0.521
USER: RMSD 5.693046
USER: SEED 179
USER: STATUS no improvement in best in 86 clusters for 5 generations
USER: GENES 15
USER: genes 0 Translation |==|  0.69052 0.36607 0.58224
USER: genes 1 Rotation |==|  0.72428 0.43793 0.56693 0.93745
USER: genes 2 Torsion [CB]-CA--N-[C] |==|  0.23262
USER: genes 3 Torsion [N]-C--CA-[N] |==|  0.07439
USER: genes 4 Torsion [C]-CA--N-[C] |==|  0.65076
USER: genes 5 Torsion [N]-C--CA-[N] |==|  0.41652
USER: genes 6 Torsion [C]-CA--N-[C] |==|  0.63683
USER: genes 7 Torsion [N]-C--CA-[N] |==|  0.33728
USER: genes 8 Torsion [N]-CA--C-[N] |==|  0.06854
USER: genes 9 Torsion [C]-N--CA-[CB] |==|  0.81553
USER: genes 10 Torsion [N]-CA--C-[N] |==|  0.19040
USER: genes 11 Torsion [C]-N--CA-[CB] |==|  0.78332
USER: genes 12 Torsion [N]-CA--C-[N] |==|  0.19910
USER: genes 13 Torsion [C]-N--CA-[C] |==|  0.57209
USER: genes 14 Torsion [N]-CA--C-[O] |==|  0.92906
ROOT
ATOM      1  CA  ALA E  11       3.067  21.218   2.674  1.00 85.35 LIG 0.17  C 
ATOM      2  CB  ALA E  11       1.958  20.453   3.399  1.00 80.46 LIG 0.04  C 
ENDROOT
BRANCH 1 3
ATOM      3  N   ALA E  11       3.626  22.241   3.551  1.00 87.15 LIG-0.35  N 
ATOM      4  C   ALA E  10       4.579  21.927   4.433  1.00 62.15 LIG 0.24  C 
ATOM      5 O    ALA E  10       5.164  20.843   4.414  1.00 65.72 LIG-0.27  OA
ATOM      6 H    ALA E  11       3.298  23.029   3.448  1.00 87.15 LIG 0.16  HD
BRANCH 4 7
ATOM      7  CA  ALA E  10       4.934  22.970   5.487  1.00 66.45 LIG 0.17  C 
ATOM      8  CB  ALA E  10       5.393  22.288   6.775  1.00 58.63 LIG 0.04  C 
BRANCH 7 9
ATOM      9  N   ALA E  10       3.817  23.858   5.772  1.00 75.43 LIG-0.35  N 
ATOM     10  C   ALA E   9       3.908  25.184   5.696  1.00 82.21 LIG 0.24  C 
ATOM     11 O    ALA E   9       4.953  25.781   5.411  1.00 73.75 LIG-0.27  OA
ATOM     12 H    ALA E  10       3.095  23.448   5.993  1.00 75.43 LIG 0.16  HD
BRANCH 10 13
ATOM     13  CA  ALA E   9       2.637  25.961   6.013  1.00 87.65 LIG 0.17  C 
ATOM     14  CB  ALA E   9       1.776  26.138   4.765  1.00 72.21 LIG 0.04  C 
BRANCH 13 15
ATOM     15  N   ALA E   9       3.028  27.247   6.577  1.00 84.24 LIG-0.35  N 
ATOM     16 H    ALA E   9       3.624  27.665   6.120  1.00 84.24 LIG 0.16  HD
ATOM     17  C   ALA E   8       2.501  27.718   7.699  1.00 61.40 LIG 0.26  C 
ATOM     18 O    ALA E   8       1.583  27.153   8.290  1.00 66.21 LIG-0.27  OA
BRANCH 17 19
ATOM     19  CA  ALA E   8       3.074  29.034   8.215  1.00 67.03 LIG 0.40  C 
ATOM     20  N   ALA E   8       2.003  30.068   8.326  1.00 60.26 LIG 0.61  N 
ATOM     21  CB  ALA E   8       3.758  28.831   9.563  1.00 64.64 LIG 0.06  C 
ENDBRANCH 17 19
ENDBRANCH 13 15
ENDBRANCH 10 13
ENDBRANCH 7 9
ENDBRANCH 4 7
ENDBRANCH 1 3
BRANCH 1 22
ATOM     22  C   ALA E  11       2.532  21.823   1.382  1.00 81.78 LIG 0.24  C 
ATOM     23  N   ALA E  12       3.052  22.982   0.984  1.00 82.91 LIG-0.35  N 
ATOM     24 H    ALA E  12       3.739  23.359   1.340  1.00 82.91 LIG 0.16  HD
ATOM     25 O    ALA E  11       1.639  21.253   0.743  1.00 89.30 LIG-0.27  OA
BRANCH 23 26
ATOM     26  CA  ALA E  12       2.456  23.710  -0.128  1.00 61.10 LIG 0.17  C 
ATOM     27  CB  ALA E  12       2.622  22.930  -1.441  1.00 65.27 LIG 0.04  C 
BRANCH 26 28
ATOM     28  C   ALA E  12       0.986  23.987   0.143  1.00 54.59 LIG 0.24  C 
ATOM     29  N   ALA E  13       0.754  24.859   1.124  1.00 64.78 LIG-0.35  N 
ATOM     30 H    ALA E  13       1.373  25.290   1.538  1.00 64.78 LIG 0.16  HD
ATOM     31 O    ALA E  12       0.097  23.463  -0.533  1.00 69.11 LIG-0.27  OA
BRANCH 29 32
ATOM     32  CA  ALA E  13      -0.592  25.162   1.585  1.00 54.23 LIG 0.17  C 
ATOM     33  CB  ALA E  13      -1.277  26.117   0.607  1.00 56.27 LIG 0.04  C 
BRANCH 32 34
ATOM     34  C   ALA E  13      -1.452  23.917   1.718  1.00 65.29 LIG 0.24  C 
ATOM     35  N   ALA E  14      -1.140  23.119   2.733  1.00 85.74 LIG-0.35  N 
ATOM     36 H    ALA E  14      -0.478  23.263   3.263  1.00 85.74 LIG 0.16  HD
ATOM     37 O    ALA E  13      -2.406  23.713   0.965  1.00 75.52 LIG-0.27  OA
BRANCH 35 38
ATOM     38  CA  ALA E  14      -1.895  21.919   3.044  1.00 94.46 LIG 0.16  C 
ATOM     39  CB  ALA E  14      -1.420  20.769   2.187  1.00106.12 LIG 0.04  C 
BRANCH 38 40
ATOM     40  C   ALA E  14      -1.759  21.576   4.523  1.00 99.07 LIG 0.22  C 
ATOM     41 O    ALA E  14      -0.775  21.941   5.167  1.00120.33 LIG-0.29  OA
ENDBRANCH 38 40
ENDBRANCH 35 38
ENDBRANCH 32 34
ENDBRANCH 29 32
ENDBRANCH 26 28
ENDBRANCH 23 26
ENDBRANCH 1 22
TORSDOF 13
ENDMDL
MODEL 39
USER: ADFR SOLUTION from run 127
USER: SCORE 6.126230 LL:  -2.974 LR:  -4.394 RR:   0.000 FEB:  -0.516
USER: RMSD 5.265772
USER: SEED 126
USER: STATUS no improvement in best in 27 clusters for 5 generations
USER: GENES 15
USER: genes 0 Translation |==|  0.63829 0.25422 0.56853
USER: genes 1 Rotation |==|  0.68134 0.54368 0.57487 0.95782
USER: genes 2 Torsion [CB]-CA--N-[C] |==|  0.85438
USER: genes 3 Torsion [N]-C--CA-[N] |==|  0.89114
USER: genes 4 Torsion [C]-CA--N-[C] |==|  0.79549
USER: genes 5 Torsion [N]-C--CA-[N] |==|  0.45929
USER: genes 6 Torsion [C]-CA--N-[C] |==|  0.85512
USER: genes 7 Torsion [N]-C--CA-[N] |==|  0.08853
USER: genes 8 Torsion [N]-CA--C-[N] |==|  0.86737
USER: genes 9 Torsion [C]-N--CA-[CB] |==|  0.17222
USER: genes 10 Torsion [N]-CA--C-[N] |==|  0.11685
USER: genes 11 Torsion [C]-N--CA-[CB] |==|  0.80549
USER: genes 12 Torsion [N]-CA--C-[N] |==|  0.14843
USER: genes 13 Torsion [C]-N--CA-[C] |==|  0.54608
USER: genes 14 Torsion [N]-CA--C-[O] |==|  0.97407
ROOT
ATOM      1  CA  ALA E  11       1.892  19.205   2.428  1.00 85.35 LIG 0.17  C 
ATOM      2  CB  ALA E  11       1.263  18.521   3.643  1.00 80.46 LIG 0.04  C 
ENDROOT
BRANCH 1 3
ATOM      3  N   ALA E  11       2.454  20.495   2.813  1.00 87.15 LIG-0.35  N 
ATOM      4  C   ALA E  10       1.708  21.388   3.468  1.00 62.15 LIG 0.24  C 
ATOM      5 O    ALA E  10       0.611  21.104   3.950  1.00 65.72 LIG-0.27  OA
ATOM      6 H    ALA E  11       3.275  20.616   2.586  1.00 87.15 LIG 0.16  HD
BRANCH 4 7
ATOM      7  CA  ALA E  10       2.265  22.800   3.611  1.00 66.45 LIG 0.17  C 
ATOM      8  CB  ALA E  10       1.965  23.619   2.356  1.00 58.63 LIG 0.04  C 
BRANCH 7 9
ATOM      9  N   ALA E  10       3.698  22.797   3.867  1.00 75.43 LIG-0.35  N 
ATOM     10  C   ALA E   9       4.224  22.449   5.038  1.00 82.21 LIG 0.24  C 
ATOM     11 O    ALA E   9       3.547  22.130   6.022  1.00 73.75 LIG-0.27  OA
ATOM     12 H    ALA E  10       4.171  23.042   3.191  1.00 75.43 LIG 0.16  HD
BRANCH 10 13
ATOM     13  CA  ALA E   9       5.744  22.489   5.127  1.00 87.65 LIG 0.17  C 
ATOM     14  CB  ALA E   9       6.371  21.344   4.335  1.00 72.21 LIG 0.04  C 
BRANCH 13 15
ATOM     15  N   ALA E   9       6.112  22.427   6.536  1.00 84.24 LIG-0.35  N 
ATOM     16 H    ALA E   9       6.685  21.813   6.723  1.00 84.24 LIG 0.16  HD
ATOM     17  C   ALA E   8       5.600  23.251   7.440  1.00 61.40 LIG 0.26  C 
ATOM     18 O    ALA E   8       4.855  24.182   7.142  1.00 66.21 LIG-0.27  OA
BRANCH 17 19
ATOM     19  CA  ALA E   8       6.010  23.005   8.888  1.00 67.03 LIG 0.40  C 
ATOM     20  N   ALA E   8       7.398  22.457   8.957  1.00 60.26 LIG 0.61  N 
ATOM     21  CB  ALA E   8       5.906  24.291   9.702  1.00 64.64 LIG 0.06  C 
ENDBRANCH 17 19
ENDBRANCH 13 15
ENDBRANCH 10 13
ENDBRANCH 7 9
ENDBRANCH 4 7
ENDBRANCH 1 3
BRANCH 1 22
ATOM     22  C   ALA E  11       0.861  19.355   1.315  1.00 81.78 LIG 0.24  C 
ATOM     23  N   ALA E  12      -0.068  20.297   1.461  1.00 82.91 LIG-0.35  N 
ATOM     24 H    ALA E  12      -0.065  20.897   2.078  1.00 82.91 LIG 0.16  HD
ATOM     25 O    ALA E  11       0.891  18.613   0.326  1.00 89.30 LIG-0.27  OA
BRANCH 23 26
ATOM     26  CA  ALA E  12      -1.193  20.367   0.538  1.00 61.10 LIG 0.17  C 
ATOM     27  CB  ALA E  12      -2.039  19.086   0.612  1.00 65.27 LIG 0.04  C 
BRANCH 26 28
ATOM     28  C   ALA E  12      -2.051  21.587   0.834  1.00 54.59 LIG 0.24  C 
ATOM     29  N   ALA E  13      -1.366  22.699   1.102  1.00 64.78 LIG-0.35  N 
ATOM     30 H    ALA E  13      -0.509  22.756   1.052  1.00 64.78 LIG 0.16  HD
ATOM     31 O    ALA E  12      -3.282  21.535   0.784  1.00 69.11 LIG-0.27  OA
BRANCH 29 32
ATOM     32  CA  ALA E  13      -2.024  23.931   1.507  1.00 54.23 LIG 0.17  C 
ATOM     33  CB  ALA E  13      -2.795  24.524   0.328  1.00 56.27 LIG 0.04  C 
BRANCH 32 34
ATOM     34  C   ALA E  13      -2.994  23.718   2.655  1.00 65.29 LIG 0.24  C 
ATOM     35  N   ALA E  14      -2.487  23.112   3.722  1.00 85.74 LIG-0.35  N 
ATOM     36 H    ALA E  14      -1.679  22.821   3.763  1.00 85.74 LIG 0.16  HD
ATOM     37 O    ALA E  13      -4.152  24.142   2.603  1.00 75.52 LIG-0.27  OA
BRANCH 35 38
ATOM     38  CA  ALA E  14      -3.257  22.884   4.931  1.00 94.46 LIG 0.16  C 
ATOM     39  CB  ALA E  14      -4.248  21.764   4.712  1.00106.12 LIG 0.04  C 
BRANCH 38 40
ATOM     40  C   ALA E  14      -2.330  22.557   6.096  1.00 99.07 LIG 0.22  C 
ATOM     41 O    ALA E  14      -1.131  22.348   5.909  1.00120.33 LIG-0.29  OA
ENDBRANCH 38 40
ENDBRANCH 35 38
ENDBRANCH 32 34
ENDBRANCH 29 32
ENDBRANCH 26 28
ENDBRANCH 23 26
ENDBRANCH 1 22
TORSDOF 13
ENDMDL
MODEL 40
USER: ADFR SOLUTION from run 20
USER: SCORE 6.391228 LL:  -2.639 LR:  -4.380 RR:   0.000 FEB:  -0.502
USER: RMSD 5.234425
USER: SEED 19
USER: STATUS searching
USER: GENES 15
USER: genes 0 Translation |==|  0.63993 0.31886 0.61273
USER: genes 1 Rotation |==|  0.80940 0.71535 0.58901 0.81618
USER: genes 2 Torsion [CB]-CA--N-[C] |==|  0.15625
USER: genes 3 Torsion [N]-C--CA-[N] |==|  0.02368
USER: genes 4 Torsion [C]-CA--N-[C] |==|  0.72854
USER: genes 5 Torsion [N]-C--CA-[N] |==|  0.39791
USER: genes 6 Torsion [C]-CA--N-[C] |==|  0.84054
USER: genes 7 Torsion [N]-C--CA-[N] |==|  0.34974
USER: genes 8 Torsion [N]-CA--C-[N] |==|  0.12979
USER: genes 9 Torsion [C]-N--CA-[CB] |==|  0.84366
USER: genes 10 Torsion [N]-CA--C-[N] |==|  0.39842
USER: genes 11 Torsion [C]-N--CA-[CB] |==|  0.16659
USER: genes 12 Torsion [N]-CA--C-[N] |==|  0.08575
USER: genes 13 Torsion [C]-N--CA-[C] |==|  0.56511
USER: genes 14 Torsion [N]-CA--C-[O] |==|  0.99131
ROOT
ATOM      1  CA  ALA E  11       1.928  20.369   3.223  1.00 85.35 LIG 0.17  C 
ATOM      2  CB  ALA E  11       2.458  19.063   3.819  1.00 80.46 LIG 0.04  C 
ENDROOT
BRANCH 1 3
ATOM      3  N   ALA E  11       2.481  21.510   3.944  1.00 87.15 LIG-0.35  N 
ATOM      4  C   ALA E  10       3.803  21.664   4.054  1.00 62.15 LIG 0.24  C 
ATOM      5 O    ALA E  10       4.601  20.992   3.400  1.00 65.72 LIG-0.27  OA
ATOM      6 H    ALA E  11       1.898  22.048   4.276  1.00 87.15 LIG 0.16  HD
BRANCH 4 7
ATOM      7  CA  ALA E  10       4.311  22.721   5.029  1.00 66.45 LIG 0.17  C 
ATOM      8  CB  ALA E  10       5.396  22.134   5.930  1.00 58.63 LIG 0.04  C 
BRANCH 7 9
ATOM      9  N   ALA E  10       3.237  23.269   5.844  1.00 75.43 LIG-0.35  N 
ATOM     10  C   ALA E   9       2.625  24.417   5.560  1.00 82.21 LIG 0.24  C 
ATOM     11 O    ALA E   9       2.934  25.135   4.602  1.00 73.75 LIG-0.27  OA
ATOM     12 H    ALA E  10       3.036  22.784   6.525  1.00 75.43 LIG 0.16  HD
BRANCH 10 13
ATOM     13  CA  ALA E   9       1.513  24.836   6.513  1.00 87.65 LIG 0.17  C 
ATOM     14  CB  ALA E   9       0.150  24.374   6.001  1.00 72.21 LIG 0.04  C 
BRANCH 13 15
ATOM     15  N   ALA E   9       1.567  26.285   6.654  1.00 84.24 LIG-0.35  N 
ATOM     16 H    ALA E   9       0.836  26.687   6.441  1.00 84.24 LIG 0.16  HD
ATOM     17  C   ALA E   8       2.654  26.917   7.075  1.00 61.40 LIG 0.26  C 
ATOM     18 O    ALA E   8       3.658  26.323   7.464  1.00 66.21 LIG-0.27  OA
BRANCH 17 19
ATOM     19  CA  ALA E   8       2.590  28.441   7.084  1.00 67.03 LIG 0.40  C 
ATOM     20  N   ALA E   8       2.938  28.974   8.436  1.00 60.26 LIG 0.61  N 
ATOM     21  CB  ALA E   8       3.520  29.025   6.027  1.00 64.64 LIG 0.06  C 
ENDBRANCH 17 19
ENDBRANCH 13 15
ENDBRANCH 10 13
ENDBRANCH 7 9
ENDBRANCH 4 7
ENDBRANCH 1 3
BRANCH 1 22
ATOM     22  C   ALA E  11       0.405  20.379   3.245  1.00 81.78 LIG 0.24  C 
ATOM     23  N   ALA E  12      -0.206  21.528   2.963  1.00 82.91 LIG-0.35  N 
ATOM     24 H    ALA E  12       0.188  22.232   2.663  1.00 82.91 LIG 0.16  HD
ATOM     25 O    ALA E  11      -0.228  19.354   3.528  1.00 89.30 LIG-0.27  OA
BRANCH 23 26
ATOM     26  CA  ALA E  12      -1.644  21.660   3.155  1.00 61.10 LIG 0.17  C 
ATOM     27  CB  ALA E  12      -2.401  20.583   2.364  1.00 65.27 LIG 0.04  C 
BRANCH 26 28
ATOM     28  C   ALA E  12      -1.994  21.579   4.632  1.00 54.59 LIG 0.24  C 
ATOM     29  N   ALA E  13      -2.990  22.377   5.015  1.00 64.78 LIG-0.35  N 
ATOM     30 H    ALA E  13      -3.452  22.859   4.473  1.00 64.78 LIG 0.16  HD
ATOM     31 O    ALA E  12      -1.412  20.797   5.389  1.00 69.11 LIG-0.27  OA
BRANCH 29 32
ATOM     32  CA  ALA E  13      -3.386  22.503   6.409  1.00 54.23 LIG 0.17  C 
ATOM     33  CB  ALA E  13      -2.210  23.016   7.241  1.00 56.27 LIG 0.04  C 
BRANCH 32 34
ATOM     34  C   ALA E  13      -4.554  23.455   6.596  1.00 65.29 LIG 0.24  C 
ATOM     35  N   ALA E  14      -5.407  23.512   5.579  1.00 85.74 LIG-0.35  N 
ATOM     36 H    ALA E  14      -5.301  23.076   4.846  1.00 85.74 LIG 0.16  HD
ATOM     37 O    ALA E  13      -4.713  24.076   7.650  1.00 75.52 LIG-0.27  OA
BRANCH 35 38
ATOM     38  CA  ALA E  14      -6.611  24.323   5.614  1.00 94.46 LIG 0.16  C 
ATOM     39  CB  ALA E  14      -6.278  25.761   5.289  1.00106.12 LIG 0.04  C 
BRANCH 38 40
ATOM     40  C   ALA E  14      -7.644  23.778   4.634  1.00 99.07 LIG 0.22  C 
ATOM     41 O    ALA E  14      -7.382  22.818   3.910  1.00120.33 LIG-0.29  OA
ENDBRANCH 38 40
ENDBRANCH 35 38
ENDBRANCH 32 34
ENDBRANCH 29 32
ENDBRANCH 26 28
ENDBRANCH 23 26
ENDBRANCH 1 22
TORSDOF 13
ENDMDL
MODEL 41
USER: ADFR SOLUTION from run 95
USER: SCORE 5.527528 LL:  -2.666 LR:  -4.374 RR:   0.000 FEB:  -0.496
USER: RMSD 6.089294
USER: SEED 94
USER: STATUS searching
USER: GENES 15
USER: genes 0 Translation |==|  0.63359 0.31311 0.61549
USER: genes 1 Rotation |==|  0.81903 0.72260 0.56243 0.80785
USER: genes 2 Torsion [CB]-CA--N-[C] |==|  0.16666
USER: genes 3 Torsion [N]-C--CA-[N] |==|  0.01460
USER: genes 4 Torsion [C]-CA--N-[C] |==|  0.77684
USER: genes 5 Torsion [N]-C--CA-[N] |==|  0.37778
USER: genes 6 Torsion [C]-CA--N-[C] |==|  0.83706
USER: genes 7 Torsion [N]-C--CA-[N] |==|  0.26925
USER: genes 8 Torsion [N]-CA--C-[N] |==|  0.61177
USER: genes 9 Torsion [C]-N--CA-[CB] |==|  0.50061
USER: genes 10 Torsion [N]-CA--C-[N] |==|  0.45064
USER: genes 11 Torsion [C]-N--CA-[CB] |==|  0.51112
USER: genes 12 Torsion [N]-CA--C-[N] |==|  0.44217
USER: genes 13 Torsion [C]-N--CA-[C] |==|  0.78474
USER: genes 14 Torsion [N]-CA--C-[O] |==|  0.94779
ROOT
ATOM      1  CA  ALA E  11       1.786  20.265   3.273  1.00 85.35 LIG 0.17  C 
ATOM      2  CB  ALA E  11       2.296  18.932   3.822  1.00 80.46 LIG 0.04  C 
ENDROOT
BRANCH 1 3
ATOM      3  N   ALA E  11       2.478  21.373   3.922  1.00 87.15 LIG-0.35  N 
ATOM      4  C   ALA E  10       3.806  21.488   3.827  1.00 62.15 LIG 0.24  C 
ATOM      5 O    ALA E  10       4.472  20.810   3.044  1.00 65.72 LIG-0.27  OA
ATOM      6 H    ALA E  11       1.970  21.919   4.350  1.00 87.15 LIG 0.16  HD
BRANCH 4 7
ATOM      7  CA  ALA E  10       4.490  22.507   4.732  1.00 66.45 LIG 0.17  C 
ATOM      8  CB  ALA E  10       5.633  21.849   5.503  1.00 58.63 LIG 0.04  C 
BRANCH 7 9
ATOM      9  N   ALA E  10       3.556  23.121   5.664  1.00 75.43 LIG-0.35  N 
ATOM     10  C   ALA E   9       2.741  24.116   5.324  1.00 82.21 LIG 0.24  C 
ATOM     11 O    ALA E   9       2.726  24.631   4.200  1.00 73.75 LIG-0.27  OA
ATOM     12 H    ALA E  10       3.581  22.781   6.454  1.00 75.43 LIG 0.16  HD
BRANCH 10 13
ATOM     13  CA  ALA E   9       1.819  24.631   6.422  1.00 87.65 LIG 0.17  C 
ATOM     14  CB  ALA E   9       0.405  24.081   6.252  1.00 72.21 LIG 0.04  C 
BRANCH 13 15
ATOM     15  N   ALA E   9       1.834  26.087   6.373  1.00 84.24 LIG-0.35  N 
ATOM     16 H    ALA E   9       1.060  26.443   6.246  1.00 84.24 LIG 0.16  HD
ATOM     17  C   ALA E   8       2.949  26.790   6.513  1.00 61.40 LIG 0.26  C 
ATOM     18 O    ALA E   8       4.030  26.272   6.787  1.00 66.21 LIG-0.27  OA
BRANCH 17 19
ATOM     19  CA  ALA E   8       2.822  28.301   6.348  1.00 67.03 LIG 0.40  C 
ATOM     20  N   ALA E   8       2.692  28.968   7.678  1.00 60.26 LIG 0.61  N 
ATOM     21  CB  ALA E   8       4.019  28.861   5.587  1.00 64.64 LIG 0.06  C 
ENDBRANCH 17 19
ENDBRANCH 13 15
ENDBRANCH 10 13
ENDBRANCH 7 9
ENDBRANCH 4 7
ENDBRANCH 1 3
BRANCH 1 22
ATOM     22  C   ALA E  11       0.276  20.367   3.454  1.00 81.78 LIG 0.24  C 
ATOM     23  N   ALA E  12      -0.391  19.240   3.697  1.00 82.91 LIG-0.35  N 
ATOM     24 H    ALA E  12      -0.025  18.481   3.868  1.00 82.91 LIG 0.16  HD
ATOM     25 O    ALA E  11      -0.296  21.460   3.364  1.00 89.30 LIG-0.27  OA
BRANCH 23 26
ATOM     26  CA  ALA E  12      -1.848  19.234   3.687  1.00 61.10 LIG 0.17  C 
ATOM     27  CB  ALA E  12      -2.389  17.831   3.998  1.00 65.27 LIG 0.04  C 
BRANCH 26 28
ATOM     28  C   ALA E  12      -2.392  20.247   4.682  1.00 54.59 LIG 0.24  C 
ATOM     29  N   ALA E  13      -3.667  20.585   4.493  1.00 64.78 LIG-0.35  N 
ATOM     30 H    ALA E  13      -4.176  20.222   3.902  1.00 64.78 LIG 0.16  HD
ATOM     31 O    ALA E  12      -1.698  20.676   5.608  1.00 69.11 LIG-0.27  OA
BRANCH 29 32
ATOM     32  CA  ALA E  13      -4.318  21.616   5.287  1.00 54.23 LIG 0.17  C 
ATOM     33  CB  ALA E  13      -5.796  21.711   4.910  1.00 56.27 LIG 0.04  C 
BRANCH 32 34
ATOM     34  C   ALA E  13      -4.222  21.345   6.778  1.00 65.29 LIG 0.24  C 
ATOM     35  N   ALA E  14      -4.392  22.406   7.559  1.00 85.74 LIG-0.35  N 
ATOM     36 H    ALA E  14      -4.511  23.202   7.258  1.00 85.74 LIG 0.16  HD
ATOM     37 O    ALA E  13      -4.059  20.203   7.213  1.00 75.52 LIG-0.27  OA
BRANCH 35 38
ATOM     38  CA  ALA E  14      -4.392  22.318   9.008  1.00 94.46 LIG 0.16  C 
ATOM     39  CB  ALA E  14      -4.120  23.677   9.612  1.00106.12 LIG 0.04  C 
BRANCH 38 40
ATOM     40  C   ALA E  14      -5.725  21.769   9.505  1.00 99.07 LIG 0.22  C 
ATOM     41 O    ALA E  14      -6.723  21.790   8.785  1.00120.33 LIG-0.29  OA
ENDBRANCH 38 40
ENDBRANCH 35 38
ENDBRANCH 32 34
ENDBRANCH 29 32
ENDBRANCH 26 28
ENDBRANCH 23 26
ENDBRANCH 1 22
TORSDOF 13
ENDMDL
MODEL 42
USER: ADFR SOLUTION from run 37
USER: SCORE 6.380965 LL:  -2.588 LR:  -4.359 RR:   0.000 FEB:  -0.481
USER: RMSD 3.932776
USER: SEED 36
USER: STATUS searching
USER: GENES 15
USER: genes 0 Translation |==|  0.65674 0.33969 0.53770
USER: genes 1 Rotation |==|  0.87096 0.75020 0.45991 0.71951
USER: genes 2 Torsion [CB]-CA--N-[C] |==|  0.83657
USER: genes 3 Torsion [N]-C--CA-[N] |==|  0.32933
USER: genes 4 Torsion [C]-CA--N-[C] |==|  0.85555
USER: genes 5 Torsion [N]-C--CA-[N] |==|  0.00341
USER: genes 6 Torsion [C]-CA--N-[C] |==|  0.78285
USER: genes 7 Torsion [N]-C--CA-[N] |==|  0.27618
USER: genes 8 Torsion [N]-CA--C-[N] |==|  0.36668
USER: genes 9 Torsion [C]-N--CA-[CB] |==|  0.16625
USER: genes 10 Torsion [N]-CA--C-[N] |==|  0.08794
USER: genes 11 Torsion [C]-N--CA-[CB] |==|  0.84372
USER: genes 12 Torsion [N]-CA--C-[N] |==|  0.40556
USER: genes 13 Torsion [C]-N--CA-[C] |==|  0.76962
USER: genes 14 Torsion [N]-CA--C-[O] |==|  0.97253
ROOT
ATOM      1  CA  ALA E  11       2.307  20.743   1.873  1.00 85.35 LIG 0.17  C 
ATOM      2  CB  ALA E  11       2.648  19.255   1.962  1.00 80.46 LIG 0.04  C 
ENDROOT
BRANCH 1 3
ATOM      3  N   ALA E  11       3.485  21.548   2.177  1.00 87.15 LIG-0.35  N 
ATOM      4  C   ALA E  10       4.102  21.424   3.354  1.00 62.15 LIG 0.24  C 
ATOM      5 O    ALA E  10       3.847  20.509   4.139  1.00 65.72 LIG-0.27  OA
ATOM      6 H    ALA E  11       3.731  22.085   1.551  1.00 87.15 LIG 0.16  HD
BRANCH 4 7
ATOM      7  CA  ALA E  10       5.158  22.465   3.709  1.00 66.45 LIG 0.17  C 
ATOM      8  CB  ALA E  10       6.519  21.797   3.899  1.00 58.63 LIG 0.04  C 
BRANCH 7 9
ATOM      9  N   ALA E  10       4.805  23.212   4.907  1.00 75.43 LIG-0.35  N 
ATOM     10  C   ALA E   9       3.629  23.815   5.065  1.00 82.21 LIG 0.24  C 
ATOM     11 O    ALA E   9       2.746  23.824   4.200  1.00 73.75 LIG-0.27  OA
ATOM     12 H    ALA E  10       5.426  23.228   5.502  1.00 75.43 LIG 0.16  HD
BRANCH 10 13
ATOM     13  CA  ALA E   9       3.421  24.541   6.388  1.00 87.65 LIG 0.17  C 
ATOM     14  CB  ALA E   9       3.067  26.008   6.158  1.00 72.21 LIG 0.04  C 
BRANCH 13 15
ATOM     15  N   ALA E   9       4.643  24.404   7.170  1.00 84.24 LIG-0.35  N 
ATOM     16 H    ALA E   9       5.144  25.103   7.165  1.00 84.24 LIG 0.16  HD
ATOM     17  C   ALA E   8       4.943  23.292   7.827  1.00 61.40 LIG 0.26  C 
ATOM     18 O    ALA E   8       4.173  22.336   7.901  1.00 66.21 LIG-0.27  OA
BRANCH 17 19
ATOM     19  CA  ALA E   8       6.298  23.264   8.527  1.00 67.03 LIG 0.40  C 
ATOM     20  N   ALA E   8       6.145  23.560   9.983  1.00 60.26 LIG 0.61  N 
ATOM     21  CB  ALA E   8       6.979  21.915   8.328  1.00 64.64 LIG 0.06  C 
ENDBRANCH 17 19
ENDBRANCH 13 15
ENDBRANCH 10 13
ENDBRANCH 7 9
ENDBRANCH 4 7
ENDBRANCH 1 3
BRANCH 1 22
ATOM     22  C   ALA E  11       1.148  21.075   2.805  1.00 81.78 LIG 0.24  C 
ATOM     23  N   ALA E  12      -0.044  21.289   2.252  1.00 82.91 LIG-0.35  N 
ATOM     24 H    ALA E  12      -0.233  21.146   1.425  1.00 82.91 LIG 0.16  HD
ATOM     25 O    ALA E  11       1.326  21.153   4.027  1.00 89.30 LIG-0.27  OA
BRANCH 23 26
ATOM     26  CA  ALA E  12      -1.145  21.799   3.057  1.00 61.10 LIG 0.17  C 
ATOM     27  CB  ALA E  12      -0.791  23.166   3.661  1.00 65.27 LIG 0.04  C 
BRANCH 26 28
ATOM     28  C   ALA E  12      -2.414  21.898   2.225  1.00 54.59 LIG 0.24  C 
ATOM     29  N   ALA E  13      -2.525  20.981   1.264  1.00 64.78 LIG-0.35  N 
ATOM     30 H    ALA E  13      -1.966  20.337   1.152  1.00 64.78 LIG 0.16  HD
ATOM     31 O    ALA E  12      -3.276  22.747   2.465  1.00 69.11 LIG-0.27  OA
BRANCH 29 32
ATOM     32  CA  ALA E  13      -3.621  20.992   0.310  1.00 54.23 LIG 0.17  C 
ATOM     33  CB  ALA E  13      -4.959  20.959   1.050  1.00 56.27 LIG 0.04  C 
BRANCH 32 34
ATOM     34  C   ALA E  13      -3.599  22.220  -0.583  1.00 65.29 LIG 0.24  C 
ATOM     35  N   ALA E  14      -4.027  22.026  -1.825  1.00 85.74 LIG-0.35  N 
ATOM     36 H    ALA E  14      -4.267  21.259  -2.130  1.00 85.74 LIG 0.16  HD
ATOM     37 O    ALA E  13      -3.264  23.324  -0.147  1.00 75.52 LIG-0.27  OA
BRANCH 35 38
ATOM     38  CA  ALA E  14      -4.130  23.103  -2.794  1.00 94.46 LIG 0.16  C 
ATOM     39  CB  ALA E  14      -4.031  22.551  -4.197  1.00106.12 LIG 0.04  C 
BRANCH 38 40
ATOM     40  C   ALA E  14      -5.440  23.859  -2.607  1.00 99.07 LIG 0.22  C 
ATOM     41 O    ALA E  14      -6.317  23.427  -1.859  1.00120.33 LIG-0.29  OA
ENDBRANCH 38 40
ENDBRANCH 35 38
ENDBRANCH 32 34
ENDBRANCH 29 32
ENDBRANCH 26 28
ENDBRANCH 23 26
ENDBRANCH 1 22
TORSDOF 13
ENDMDL
MODEL 43
USER: ADFR SOLUTION from run 67
USER: SCORE 5.390784 LL:  -2.636 LR:  -4.350 RR:   0.000 FEB:  -0.472
USER: RMSD 4.300373
USER: SEED 66
USER: STATUS searching
USER: GENES 15
USER: genes 0 Translation |==|  0.63949 0.32021 0.61628
USER: genes 1 Rotation |==|  0.81729 0.72784 0.58068 0.80151
USER: genes 2 Torsion [CB]-CA--N-[C] |==|  0.15285
USER: genes 3 Torsion [N]-C--CA-[N] |==|  0.01903
USER: genes 4 Torsion [C]-CA--N-[C] |==|  0.78701
USER: genes 5 Torsion [N]-C--CA-[N] |==|  0.36111
USER: genes 6 Torsion [C]-CA--N-[C] |==|  0.83614
USER: genes 7 Torsion [N]-C--CA-[N] |==|  0.28610
USER: genes 8 Torsion [N]-CA--C-[N] |==|  0.61746
USER: genes 9 Torsion [C]-N--CA-[CB] |==|  0.52503
USER: genes 10 Torsion [N]-CA--C-[N] |==|  0.37027
USER: genes 11 Torsion [C]-N--CA-[CB] |==|  0.16966
USER: genes 12 Torsion [N]-CA--C-[N] |==|  0.09883
USER: genes 13 Torsion [C]-N--CA-[C] |==|  0.16751
USER: genes 14 Torsion [N]-CA--C-[O] |==|  0.10102
ROOT
ATOM      1  CA  ALA E  11       1.918  20.393   3.287  1.00 85.35 LIG 0.17  C 
ATOM      2  CB  ALA E  11       2.502  19.073   3.794  1.00 80.46 LIG 0.04  C 
ENDROOT
BRANCH 1 3
ATOM      3  N   ALA E  11       2.523  21.514   3.997  1.00 87.15 LIG-0.35  N 
ATOM      4  C   ALA E  10       3.850  21.662   4.022  1.00 62.15 LIG 0.24  C 
ATOM      5 O    ALA E  10       4.600  21.003   3.300  1.00 65.72 LIG-0.27  OA
ATOM      6 H    ALA E  11       1.966  22.046   4.380  1.00 87.15 LIG 0.16  HD
BRANCH 4 7
ATOM      7  CA  ALA E  10       4.426  22.693   4.987  1.00 66.45 LIG 0.17  C 
ATOM      8  CB  ALA E  10       5.539  22.069   5.828  1.00 58.63 LIG 0.04  C 
BRANCH 7 9
ATOM      9  N   ALA E  10       3.404  23.253   5.859  1.00 75.43 LIG-0.35  N 
ATOM     10  C   ALA E   9       2.528  24.170   5.453  1.00 82.21 LIG 0.24  C 
ATOM     11 O    ALA E   9       2.524  24.651   4.315  1.00 73.75 LIG-0.27  OA
ATOM     12 H    ALA E  10       3.420  22.937   6.659  1.00 75.43 LIG 0.16  HD
BRANCH 10 13
ATOM     13  CA  ALA E   9       1.518  24.636   6.493  1.00 87.65 LIG 0.17  C 
ATOM     14  CB  ALA E   9       0.127  24.084   6.192  1.00 72.21 LIG 0.04  C 
BRANCH 13 15
ATOM     15  N   ALA E   9       1.524  26.093   6.501  1.00 84.24 LIG-0.35  N 
ATOM     16 H    ALA E   9       0.761  26.449   6.322  1.00 84.24 LIG 0.16  HD
ATOM     17  C   ALA E   8       2.617  26.796   6.762  1.00 61.40 LIG 0.26  C 
ATOM     18 O    ALA E   8       3.676  26.275   7.107  1.00 66.21 LIG-0.27  OA
BRANCH 17 19
ATOM     19  CA  ALA E   8       2.491  28.312   6.643  1.00 67.03 LIG 0.40  C 
ATOM     20  N   ALA E   8       2.390  28.940   7.995  1.00 60.26 LIG 0.61  N 
ATOM     21  CB  ALA E   8       3.674  28.892   5.875  1.00 64.64 LIG 0.06  C 
ENDBRANCH 17 19
ENDBRANCH 13 15
ENDBRANCH 10 13
ENDBRANCH 7 9
ENDBRANCH 4 7
ENDBRANCH 1 3
BRANCH 1 22
ATOM     22  C   ALA E  11       0.402  20.390   3.435  1.00 81.78 LIG 0.24  C 
ATOM     23  N   ALA E  12      -0.192  19.219   3.657  1.00 82.91 LIG-0.35  N 
ATOM     24 H    ALA E  12       0.222  18.485   3.832  1.00 82.91 LIG 0.16  HD
ATOM     25 O    ALA E  11      -0.242  21.442   3.338  1.00 89.30 LIG-0.27  OA
BRANCH 23 26
ATOM     26  CA  ALA E  12      -1.644  19.113   3.614  1.00 61.10 LIG 0.17  C 
ATOM     27  CB  ALA E  12      -2.106  17.737   4.116  1.00 65.27 LIG 0.04  C 
BRANCH 26 28
ATOM     28  C   ALA E  12      -2.284  20.221   4.437  1.00 54.59 LIG 0.24  C 
ATOM     29  N   ALA E  13      -3.288  20.856   3.833  1.00 64.78 LIG-0.35  N 
ATOM     30 H    ALA E  13      -3.605  20.629   3.067  1.00 64.78 LIG 0.16  HD
ATOM     31 O    ALA E  12      -1.909  20.466   5.587  1.00 69.11 LIG-0.27  OA
BRANCH 29 32
ATOM     32  CA  ALA E  13      -3.943  22.008   4.432  1.00 54.23 LIG 0.17  C 
ATOM     33  CB  ALA E  13      -2.933  23.138   4.631  1.00 56.27 LIG 0.04  C 
BRANCH 32 34
ATOM     34  C   ALA E  13      -5.085  22.532   3.580  1.00 65.29 LIG 0.24  C 
ATOM     35  N   ALA E  14      -5.782  21.604   2.934  1.00 85.74 LIG-0.35  N 
ATOM     36 H    ALA E  14      -5.591  20.767   2.955  1.00 85.74 LIG 0.16  HD
ATOM     37 O    ALA E  13      -5.368  23.732   3.555  1.00 75.52 LIG-0.27  OA
BRANCH 35 38
ATOM     38  CA  ALA E  14      -6.944  21.923   2.123  1.00 94.46 LIG 0.16  C 
ATOM     39  CB  ALA E  14      -8.025  22.539   2.982  1.00106.12 LIG 0.04  C 
BRANCH 38 40
ATOM     40  C   ALA E  14      -6.557  22.868   0.991  1.00 99.07 LIG 0.22  C 
ATOM     41 O    ALA E  14      -5.468  22.763   0.427  1.00120.33 LIG-0.29  OA
ENDBRANCH 38 40
ENDBRANCH 35 38
ENDBRANCH 32 34
ENDBRANCH 29 32
ENDBRANCH 26 28
ENDBRANCH 23 26
ENDBRANCH 1 22
TORSDOF 13
ENDMDL
MODEL 44
USER: ADFR SOLUTION from run 42
USER: SCORE 4.827076 LL:  -2.807 LR:  -4.336 RR:   0.000 FEB:  -0.458
USER: RMSD 5.437909
USER: SEED 41
USER: STATUS no improvement in best in 106 clusters for 5 generations
USER: GENES 15
USER: genes 0 Translation |==|  0.62798 0.37242 0.59417
USER: genes 1 Rotation |==|  0.71502 0.45684 0.52728 0.94851
USER: genes 2 Torsion [CB]-CA--N-[C] |==|  0.28858
USER: genes 3 Torsion [N]-C--CA-[N] |==|  0.05900
USER: genes 4 Torsion [C]-CA--N-[C] |==|  0.60571
USER: genes 5 Torsion [N]-C--CA-[N] |==|  0.45642
USER: genes 6 Torsion [C]-CA--N-[C] |==|  0.56193
USER: genes 7 Torsion [N]-C--CA-[N] |==|  0.40715
USER: genes 8 Torsion [N]-CA--C-[N] |==|  0.87777
USER: genes 9 Torsion [C]-N--CA-[CB] |==|  0.87175
USER: genes 10 Torsion [N]-CA--C-[N] |==|  0.85816
USER: genes 11 Torsion [C]-N--CA-[CB] |==|  0.19116
USER: genes 12 Torsion [N]-CA--C-[N] |==|  0.08135
USER: genes 13 Torsion [C]-N--CA-[C] |==|  0.73740
USER: genes 14 Torsion [N]-CA--C-[O] |==|  0.95016
ROOT
ATOM      1  CA  ALA E  11       1.660  21.333   2.889  1.00 85.35 LIG 0.17  C 
ATOM      2  CB  ALA E  11       0.585  20.728   3.795  1.00 80.46 LIG 0.04  C 
ENDROOT
BRANCH 1 3
ATOM      3  N   ALA E  11       2.447  22.312   3.630  1.00 87.15 LIG-0.35  N 
ATOM      4  C   ALA E  10       3.677  22.008   4.055  1.00 62.15 LIG 0.24  C 
ATOM      5 O    ALA E  10       4.272  20.998   3.679  1.00 65.72 LIG-0.27  OA
ATOM      6 H    ALA E  11       2.059  23.069   3.759  1.00 87.15 LIG 0.16  HD
BRANCH 4 7
ATOM      7  CA  ALA E  10       4.340  22.968   5.036  1.00 66.45 LIG 0.17  C 
ATOM      8  CB  ALA E  10       5.178  22.194   6.052  1.00 58.63 LIG 0.04  C 
BRANCH 7 9
ATOM      9  N   ALA E  10       3.365  23.796   5.730  1.00 75.43 LIG-0.35  N 
ATOM     10  C   ALA E   9       3.578  25.078   6.020  1.00 82.21 LIG 0.24  C 
ATOM     11 O    ALA E   9       4.630  25.670   5.758  1.00 73.75 LIG-0.27  OA
ATOM     12 H    ALA E  10       2.641  23.381   5.936  1.00 75.43 LIG 0.16  HD
BRANCH 10 13
ATOM     13  CA  ALA E   9       2.445  25.798   6.738  1.00 87.65 LIG 0.17  C 
ATOM     14  CB  ALA E   9       1.281  26.074   5.789  1.00 72.21 LIG 0.04  C 
BRANCH 13 15
ATOM     15  N   ALA E   9       2.981  27.033   7.296  1.00 84.24 LIG-0.35  N 
ATOM     16 H    ALA E   9       3.697  27.312   6.909  1.00 84.24 LIG 0.16  HD
ATOM     17  C   ALA E   8       2.406  27.660   8.313  1.00 61.40 LIG 0.26  C 
ATOM     18 O    ALA E   8       1.333  27.301   8.794  1.00 66.21 LIG-0.27  OA
BRANCH 17 19
ATOM     19  CA  ALA E   8       3.132  28.891   8.847  1.00 67.03 LIG 0.40  C 
ATOM     20  N   ALA E   8       2.155  29.910   9.333  1.00 60.26 LIG 0.61  N 
ATOM     21  CB  ALA E   8       4.096  28.504   9.963  1.00 64.64 LIG 0.06  C 
ENDBRANCH 17 19
ENDBRANCH 13 15
ENDBRANCH 10 13
ENDBRANCH 7 9
ENDBRANCH 4 7
ENDBRANCH 1 3
BRANCH 1 22
ATOM     22  C   ALA E  11       1.020  21.951   1.652  1.00 81.78 LIG 0.24  C 
ATOM     23  N   ALA E  12       0.453  23.148   1.786  1.00 82.91 LIG-0.35  N 
ATOM     24 H    ALA E  12       0.516  23.644   2.486  1.00 82.91 LIG 0.16  HD
ATOM     25 O    ALA E  11       1.025  21.347   0.572  1.00 89.30 LIG-0.27  OA
BRANCH 23 26
ATOM     26  CA  ALA E  12      -0.343  23.708   0.702  1.00 61.10 LIG 0.17  C 
ATOM     27  CB  ALA E  12       0.383  23.552  -0.643  1.00 65.27 LIG 0.04  C 
BRANCH 26 28
ATOM     28  C   ALA E  12      -1.711  23.047   0.648  1.00 54.59 LIG 0.24  C 
ATOM     29  N   ALA E  13      -1.687  21.714   0.636  1.00 64.78 LIG-0.35  N 
ATOM     30 H    ALA E  13      -0.968  21.248   0.718  1.00 64.78 LIG 0.16  HD
ATOM     31 O    ALA E  12      -2.749  23.714   0.655  1.00 69.11 LIG-0.27  OA
BRANCH 29 32
ATOM     32  CA  ALA E  13      -2.897  20.922   0.482  1.00 54.23 LIG 0.17  C 
ATOM     33  CB  ALA E  13      -3.452  21.088  -0.933  1.00 56.27 LIG 0.04  C 
BRANCH 32 34
ATOM     34  C   ALA E  13      -2.657  19.444   0.730  1.00 65.29 LIG 0.24  C 
ATOM     35  N   ALA E  14      -1.678  19.164   1.584  1.00 85.74 LIG-0.35  N 
ATOM     36 H    ALA E  14      -1.182  19.763   1.949  1.00 85.74 LIG 0.16  HD
ATOM     37 O    ALA E  13      -3.372  18.582   0.214  1.00 75.52 LIG-0.27  OA
BRANCH 35 38
ATOM     38  CA  ALA E  14      -1.353  17.806   1.982  1.00 94.46 LIG 0.16  C 
ATOM     39  CB  ALA E  14       0.142  17.655   2.144  1.00106.12 LIG 0.04  C 
BRANCH 38 40
ATOM     40  C   ALA E  14      -2.070  17.449   3.279  1.00 99.07 LIG 0.22  C 
ATOM     41 O    ALA E  14      -2.528  18.328   4.009  1.00120.33 LIG-0.29  OA
ENDBRANCH 38 40
ENDBRANCH 35 38
ENDBRANCH 32 34
ENDBRANCH 29 32
ENDBRANCH 26 28
ENDBRANCH 23 26
ENDBRANCH 1 22
TORSDOF 13
ENDMDL
MODEL 45
USER: ADFR SOLUTION from run 37
USER: SCORE 6.061455 LL:  -2.683 LR:  -4.331 RR:   0.000 FEB:  -0.453
USER: RMSD 4.479644
USER: SEED 36
USER: STATUS searching
USER: GENES 15
USER: genes 0 Translation |==|  0.65706 0.33624 0.53754
USER: genes 1 Rotation |==|  0.87096 0.75010 0.45984 0.71960
USER: genes 2 Torsion [CB]-CA--N-[C] |==|  0.83650
USER: genes 3 Torsion [N]-C--CA-[N] |==|  0.32929
USER: genes 4 Torsion [C]-CA--N-[C] |==|  0.85556
USER: genes 5 Torsion [N]-C--CA-[N] |==|  0.00343
USER: genes 6 Torsion [C]-CA--N-[C] |==|  0.78284
USER: genes 7 Torsion [N]-C--CA-[N] |==|  0.27134
USER: genes 8 Torsion [N]-CA--C-[N] |==|  0.37225
USER: genes 9 Torsion [C]-N--CA-[CB] |==|  0.17042
USER: genes 10 Torsion [N]-CA--C-[N] |==|  0.11894
USER: genes 11 Torsion [C]-N--CA-[CB] |==|  0.49454
USER: genes 12 Torsion [N]-CA--C-[N] |==|  0.43890
USER: genes 13 Torsion [C]-N--CA-[C] |==|  0.76346
USER: genes 14 Torsion [N]-CA--C-[O] |==|  0.97237
ROOT
ATOM      1  CA  ALA E  11       2.314  20.681   1.870  1.00 85.35 LIG 0.17  C 
ATOM      2  CB  ALA E  11       2.655  19.193   1.960  1.00 80.46 LIG 0.04  C 
ENDROOT
BRANCH 1 3
ATOM      3  N   ALA E  11       3.493  21.485   2.174  1.00 87.15 LIG-0.35  N 
ATOM      4  C   ALA E  10       4.109  21.362   3.352  1.00 62.15 LIG 0.24  C 
ATOM      5 O    ALA E  10       3.853  20.448   4.137  1.00 65.72 LIG-0.27  OA
ATOM      6 H    ALA E  11       3.739  22.021   1.548  1.00 87.15 LIG 0.16  HD
BRANCH 4 7
ATOM      7  CA  ALA E  10       5.166  22.403   3.706  1.00 66.45 LIG 0.17  C 
ATOM      8  CB  ALA E  10       6.526  21.735   3.897  1.00 58.63 LIG 0.04  C 
BRANCH 7 9
ATOM      9  N   ALA E  10       4.812  23.151   4.903  1.00 75.43 LIG-0.35  N 
ATOM     10  C   ALA E   9       3.636  23.755   5.060  1.00 82.21 LIG 0.24  C 
ATOM     11 O    ALA E   9       2.754  23.763   4.195  1.00 73.75 LIG-0.27  OA
ATOM     12 H    ALA E  10       5.433  23.167   5.498  1.00 75.43 LIG 0.16  HD
BRANCH 10 13
ATOM     13  CA  ALA E   9       3.428  24.482   6.382  1.00 87.65 LIG 0.17  C 
ATOM     14  CB  ALA E   9       3.075  25.950   6.150  1.00 72.21 LIG 0.04  C 
BRANCH 13 15
ATOM     15  N   ALA E   9       4.650  24.346   7.165  1.00 84.24 LIG-0.35  N 
ATOM     16 H    ALA E   9       5.151  25.045   7.160  1.00 84.24 LIG 0.16  HD
ATOM     17  C   ALA E   8       4.949  23.234   7.823  1.00 61.40 LIG 0.26  C 
ATOM     18 O    ALA E   8       4.178  22.279   7.898  1.00 66.21 LIG-0.27  OA
BRANCH 17 19
ATOM     19  CA  ALA E   8       6.304  23.207   8.524  1.00 67.03 LIG 0.40  C 
ATOM     20  N   ALA E   8       6.155  23.545   9.971  1.00 60.26 LIG 0.61  N 
ATOM     21  CB  ALA E   8       6.965  21.842   8.362  1.00 64.64 LIG 0.06  C 
ENDBRANCH 17 19
ENDBRANCH 13 15
ENDBRANCH 10 13
ENDBRANCH 7 9
ENDBRANCH 4 7
ENDBRANCH 1 3
BRANCH 1 22
ATOM     22  C   ALA E  11       1.155  21.014   2.802  1.00 81.78 LIG 0.24  C 
ATOM     23  N   ALA E  12      -0.045  21.187   2.252  1.00 82.91 LIG-0.35  N 
ATOM     24 H    ALA E  12      -0.237  21.018   1.431  1.00 82.91 LIG 0.16  HD
ATOM     25 O    ALA E  11       1.340  21.128   4.020  1.00 89.30 LIG-0.27  OA
BRANCH 23 26
ATOM     26  CA  ALA E  12      -1.151  21.696   3.052  1.00 61.10 LIG 0.17  C 
ATOM     27  CB  ALA E  12      -0.836  23.102   3.585  1.00 65.27 LIG 0.04  C 
BRANCH 26 28
ATOM     28  C   ALA E  12      -2.435  21.712   2.239  1.00 54.59 LIG 0.24  C 
ATOM     29  N   ALA E  13      -2.637  20.625   1.493  1.00 64.78 LIG-0.35  N 
ATOM     30 H    ALA E  13      -2.126  19.933   1.509  1.00 64.78 LIG 0.16  HD
ATOM     31 O    ALA E  12      -3.231  22.652   2.310  1.00 69.11 LIG-0.27  OA
BRANCH 29 32
ATOM     32  CA  ALA E  13      -3.760  20.517   0.576  1.00 54.23 LIG 0.17  C 
ATOM     33  CB  ALA E  13      -3.698  19.183  -0.170  1.00 56.27 LIG 0.04  C 
BRANCH 32 34
ATOM     34  C   ALA E  13      -5.099  20.606   1.285  1.00 65.29 LIG 0.24  C 
ATOM     35  N   ALA E  14      -6.123  20.969   0.521  1.00 85.74 LIG-0.35  N 
ATOM     36 H    ALA E  14      -6.044  21.179  -0.309  1.00 85.74 LIG 0.16  HD
ATOM     37 O    ALA E  13      -5.217  20.298   2.474  1.00 75.52 LIG-0.27  OA
BRANCH 35 38
ATOM     38  CA  ALA E  14      -7.483  21.047   1.022  1.00 94.46 LIG 0.16  C 
ATOM     39  CB  ALA E  14      -8.271  22.066   0.231  1.00106.12 LIG 0.04  C 
BRANCH 38 40
ATOM     40  C   ALA E  14      -8.153  19.679   0.950  1.00 99.07 LIG 0.22  C 
ATOM     41 O    ALA E  14      -7.618  18.746   0.350  1.00120.33 LIG-0.29  OA
ENDBRANCH 38 40
ENDBRANCH 35 38
ENDBRANCH 32 34
ENDBRANCH 29 32
ENDBRANCH 26 28
ENDBRANCH 23 26
ENDBRANCH 1 22
TORSDOF 13
ENDMDL
MODEL 46
USER: ADFR SOLUTION from run 42
USER: SCORE 4.196807 LL:  -2.461 LR:  -4.330 RR:   0.000 FEB:  -0.452
USER: RMSD 5.302904
USER: SEED 41
USER: STATUS no improvement in best in 106 clusters for 5 generations
USER: GENES 15
USER: genes 0 Translation |==|  0.62798 0.37242 0.59417
USER: genes 1 Rotation |==|  0.71502 0.45684 0.52728 0.94851
USER: genes 2 Torsion [CB]-CA--N-[C] |==|  0.28858
USER: genes 3 Torsion [N]-C--CA-[N] |==|  0.05900
USER: genes 4 Torsion [C]-CA--N-[C] |==|  0.60571
USER: genes 5 Torsion [N]-C--CA-[N] |==|  0.45642
USER: genes 6 Torsion [C]-CA--N-[C] |==|  0.56193
USER: genes 7 Torsion [N]-C--CA-[N] |==|  0.40715
USER: genes 8 Torsion [N]-CA--C-[N] |==|  0.14352
USER: genes 9 Torsion [C]-N--CA-[CB] |==|  0.84909
USER: genes 10 Torsion [N]-CA--C-[N] |==|  0.40094
USER: genes 11 Torsion [C]-N--CA-[CB] |==|  0.16973
USER: genes 12 Torsion [N]-CA--C-[N] |==|  0.11524
USER: genes 13 Torsion [C]-N--CA-[C] |==|  0.76401
USER: genes 14 Torsion [N]-CA--C-[O] |==|  0.99340
ROOT
ATOM      1  CA  ALA E  11       1.660  21.333   2.889  1.00 85.35 LIG 0.17  C 
ATOM      2  CB  ALA E  11       0.585  20.728   3.795  1.00 80.46 LIG 0.04  C 
ENDROOT
BRANCH 1 3
ATOM      3  N   ALA E  11       2.447  22.312   3.630  1.00 87.15 LIG-0.35  N 
ATOM      4  C   ALA E  10       3.677  22.008   4.055  1.00 62.15 LIG 0.24  C 
ATOM      5 O    ALA E  10       4.272  20.998   3.679  1.00 65.72 LIG-0.27  OA
ATOM      6 H    ALA E  11       2.059  23.069   3.759  1.00 87.15 LIG 0.16  HD
BRANCH 4 7
ATOM      7  CA  ALA E  10       4.340  22.968   5.036  1.00 66.45 LIG 0.17  C 
ATOM      8  CB  ALA E  10       5.178  22.194   6.052  1.00 58.63 LIG 0.04  C 
BRANCH 7 9
ATOM      9  N   ALA E  10       3.365  23.796   5.730  1.00 75.43 LIG-0.35  N 
ATOM     10  C   ALA E   9       3.578  25.078   6.020  1.00 82.21 LIG 0.24  C 
ATOM     11 O    ALA E   9       4.630  25.670   5.758  1.00 73.75 LIG-0.27  OA
ATOM     12 H    ALA E  10       2.641  23.381   5.936  1.00 75.43 LIG 0.16  HD
BRANCH 10 13
ATOM     13  CA  ALA E   9       2.445  25.798   6.738  1.00 87.65 LIG 0.17  C 
ATOM     14  CB  ALA E   9       1.281  26.074   5.789  1.00 72.21 LIG 0.04  C 
BRANCH 13 15
ATOM     15  N   ALA E   9       2.981  27.033   7.296  1.00 84.24 LIG-0.35  N 
ATOM     16 H    ALA E   9       3.697  27.312   6.909  1.00 84.24 LIG 0.16  HD
ATOM     17  C   ALA E   8       2.406  27.660   8.313  1.00 61.40 LIG 0.26  C 
ATOM     18 O    ALA E   8       1.333  27.301   8.794  1.00 66.21 LIG-0.27  OA
BRANCH 17 19
ATOM     19  CA  ALA E   8       3.132  28.891   8.847  1.00 67.03 LIG 0.40  C 
ATOM     20  N   ALA E   8       2.155  29.910   9.333  1.00 60.26 LIG 0.61  N 
ATOM     21  CB  ALA E   8       4.096  28.504   9.963  1.00 64.64 LIG 0.06  C 
ENDBRANCH 17 19
ENDBRANCH 13 15
ENDBRANCH 10 13
ENDBRANCH 7 9
ENDBRANCH 4 7
ENDBRANCH 1 3
BRANCH 1 22
ATOM     22  C   ALA E  11       1.020  21.951   1.652  1.00 81.78 LIG 0.24  C 
ATOM     23  N   ALA E  12       1.815  22.621   0.819  1.00 82.91 LIG-0.35  N 
ATOM     24 H    ALA E  12       2.674  22.638   0.869  1.00 82.91 LIG 0.16  HD
ATOM     25 O    ALA E  11      -0.194  21.837   1.447  1.00 89.30 LIG-0.27  OA
BRANCH 23 26
ATOM     26  CA  ALA E  12       1.244  23.399  -0.272  1.00 61.10 LIG 0.17  C 
ATOM     27  CB  ALA E  12       0.320  22.528  -1.136  1.00 65.27 LIG 0.04  C 
BRANCH 26 28
ATOM     28  C   ALA E  12       0.487  24.602   0.269  1.00 54.59 LIG 0.24  C 
ATOM     29  N   ALA E  13       0.571  25.699  -0.484  1.00 64.78 LIG-0.35  N 
ATOM     30 H    ALA E  13       0.962  25.724  -1.249  1.00 64.78 LIG 0.16  HD
ATOM     31 O    ALA E  12      -0.177  24.531   1.306  1.00 69.11 LIG-0.27  OA
BRANCH 29 32
ATOM     32  CA  ALA E  13      -0.004  26.967  -0.065  1.00 54.23 LIG 0.17  C 
ATOM     33  CB  ALA E  13       0.649  27.432   1.237  1.00 56.27 LIG 0.04  C 
BRANCH 32 34
ATOM     34  C   ALA E  13       0.177  28.057  -1.106  1.00 65.29 LIG 0.24  C 
ATOM     35  N   ALA E  14      -0.018  27.677  -2.364  1.00 85.74 LIG-0.35  N 
ATOM     36 H    ALA E  14      -0.198  26.869  -2.593  1.00 85.74 LIG 0.16  HD
ATOM     37 O    ALA E  13       0.428  29.220  -0.781  1.00 75.52 LIG-0.27  OA
BRANCH 35 38
ATOM     38  CA  ALA E  14       0.055  28.603  -3.480  1.00 94.46 LIG 0.16  C 
ATOM     39  CB  ALA E  14       0.455  27.870  -4.740  1.00106.12 LIG 0.04  C 
BRANCH 38 40
ATOM     40  C   ALA E  14      -1.284  29.307  -3.673  1.00 99.07 LIG 0.22  C 
ATOM     41 O    ALA E  14      -2.251  29.028  -2.964  1.00120.33 LIG-0.29  OA
ENDBRANCH 38 40
ENDBRANCH 35 38
ENDBRANCH 32 34
ENDBRANCH 29 32
ENDBRANCH 26 28
ENDBRANCH 23 26
ENDBRANCH 1 22
TORSDOF 13
ENDMDL
MODEL 47
USER: ADFR SOLUTION from run 20
USER: SCORE 5.899920 LL:  -2.887 LR:  -4.301 RR:   0.000 FEB:  -0.423
USER: RMSD 5.622197
USER: SEED 19
USER: STATUS searching
USER: GENES 15
USER: genes 0 Translation |==|  0.63993 0.31886 0.61273
USER: genes 1 Rotation |==|  0.80940 0.71535 0.58901 0.81618
USER: genes 2 Torsion [CB]-CA--N-[C] |==|  0.15625
USER: genes 3 Torsion [N]-C--CA-[N] |==|  0.02368
USER: genes 4 Torsion [C]-CA--N-[C] |==|  0.72854
USER: genes 5 Torsion [N]-C--CA-[N] |==|  0.39774
USER: genes 6 Torsion [C]-CA--N-[C] |==|  0.84138
USER: genes 7 Torsion [N]-C--CA-[N] |==|  0.35112
USER: genes 8 Torsion [N]-CA--C-[N] |==|  0.10673
USER: genes 9 Torsion [C]-N--CA-[CB] |==|  0.82304
USER: genes 10 Torsion [N]-CA--C-[N] |==|  0.54825
USER: genes 11 Torsion [C]-N--CA-[CB] |==|  0.17428
USER: genes 12 Torsion [N]-CA--C-[N] |==|  0.08687
USER: genes 13 Torsion [C]-N--CA-[C] |==|  0.56758
USER: genes 14 Torsion [N]-CA--C-[O] |==|  0.99095
ROOT
ATOM      1  CA  ALA E  11       1.928  20.369   3.223  1.00 85.35 LIG 0.17  C 
ATOM      2  CB  ALA E  11       2.458  19.063   3.819  1.00 80.46 LIG 0.04  C 
ENDROOT
BRANCH 1 3
ATOM      3  N   ALA E  11       2.481  21.510   3.944  1.00 87.15 LIG-0.35  N 
ATOM      4  C   ALA E  10       3.803  21.664   4.054  1.00 62.15 LIG 0.24  C 
ATOM      5 O    ALA E  10       4.601  20.992   3.400  1.00 65.72 LIG-0.27  OA
ATOM      6 H    ALA E  11       1.898  22.048   4.276  1.00 87.15 LIG 0.16  HD
BRANCH 4 7
ATOM      7  CA  ALA E  10       4.311  22.721   5.029  1.00 66.45 LIG 0.17  C 
ATOM      8  CB  ALA E  10       5.396  22.134   5.930  1.00 58.63 LIG 0.04  C 
BRANCH 7 9
ATOM      9  N   ALA E  10       3.237  23.269   5.844  1.00 75.43 LIG-0.35  N 
ATOM     10  C   ALA E   9       2.625  24.417   5.560  1.00 82.21 LIG 0.24  C 
ATOM     11 O    ALA E   9       2.934  25.135   4.602  1.00 73.75 LIG-0.27  OA
ATOM     12 H    ALA E  10       3.036  22.784   6.525  1.00 75.43 LIG 0.16  HD
BRANCH 10 13
ATOM     13  CA  ALA E   9       1.513  24.836   6.513  1.00 87.65 LIG 0.17  C 
ATOM     14  CB  ALA E   9       0.150  24.376   6.001  1.00 72.21 LIG 0.04  C 
BRANCH 13 15
ATOM     15  N   ALA E   9       1.568  26.285   6.655  1.00 84.24 LIG-0.35  N 
ATOM     16 H    ALA E   9       0.836  26.687   6.446  1.00 84.24 LIG 0.16  HD
ATOM     17  C   ALA E   8       2.657  26.916   7.071  1.00 61.40 LIG 0.26  C 
ATOM     18 O    ALA E   8       3.663  26.322   7.455  1.00 66.21 LIG-0.27  OA
BRANCH 17 19
ATOM     19  CA  ALA E   8       2.593  28.440   7.083  1.00 67.03 LIG 0.40  C 
ATOM     20  N   ALA E   8       2.960  28.973   8.429  1.00 60.26 LIG 0.61  N 
ATOM     21  CB  ALA E   8       3.509  29.025   6.013  1.00 64.64 LIG 0.06  C 
ENDBRANCH 17 19
ENDBRANCH 13 15
ENDBRANCH 10 13
ENDBRANCH 7 9
ENDBRANCH 4 7
ENDBRANCH 1 3
BRANCH 1 22
ATOM     22  C   ALA E  11       0.405  20.379   3.245  1.00 81.78 LIG 0.24  C 
ATOM     23  N   ALA E  12      -0.204  21.558   3.131  1.00 82.91 LIG-0.35  N 
ATOM     24 H    ALA E  12       0.192  22.297   2.937  1.00 82.91 LIG 0.16  HD
ATOM     25 O    ALA E  11      -0.230  19.325   3.376  1.00 89.30 LIG-0.27  OA
BRANCH 23 26
ATOM     26  CA  ALA E  12      -1.641  21.664   3.340  1.00 61.10 LIG 0.17  C 
ATOM     27  CB  ALA E  12      -2.406  20.856   2.280  1.00 65.27 LIG 0.04  C 
BRANCH 26 28
ATOM     28  C   ALA E  12      -2.014  21.195   4.737  1.00 54.59 LIG 0.24  C 
ATOM     29  N   ALA E  13      -3.305  20.909   4.905  1.00 64.78 LIG-0.35  N 
ATOM     30 H    ALA E  13      -3.884  20.921   4.268  1.00 64.78 LIG 0.16  HD
ATOM     31 O    ALA E  12      -1.161  21.061   5.619  1.00 69.11 LIG-0.27  OA
BRANCH 29 32
ATOM     32  CA  ALA E  13      -3.853  20.547   6.202  1.00 54.23 LIG 0.17  C 
ATOM     33  CB  ALA E  13      -3.693  21.712   7.180  1.00 56.27 LIG 0.04  C 
BRANCH 32 34
ATOM     34  C   ALA E  13      -5.325  20.184   6.128  1.00 65.29 LIG 0.24  C 
ATOM     35  N   ALA E  14      -5.715  19.627   4.987  1.00 85.74 LIG-0.35  N 
ATOM     36 H    ALA E  14      -5.193  19.509   4.315  1.00 85.74 LIG 0.16  HD
ATOM     37 O    ALA E  13      -6.075  20.345   7.094  1.00 75.52 LIG-0.27  OA
BRANCH 35 38
ATOM     38  CA  ALA E  14      -7.073  19.163   4.768  1.00 94.46 LIG 0.16  C 
ATOM     39  CB  ALA E  14      -7.961  20.321   4.374  1.00106.12 LIG 0.04  C 
BRANCH 38 40
ATOM     40  C   ALA E  14      -7.096  18.081   3.694  1.00 99.07 LIG 0.22  C 
ATOM     41 O    ALA E  14      -6.066  17.759   3.102  1.00120.33 LIG-0.29  OA
ENDBRANCH 38 40
ENDBRANCH 35 38
ENDBRANCH 32 34
ENDBRANCH 29 32
ENDBRANCH 26 28
ENDBRANCH 23 26
ENDBRANCH 1 22
TORSDOF 13
ENDMDL
MODEL 48
USER: ADFR SOLUTION from run 162
USER: SCORE 4.365670 LL:  -2.218 LR:  -4.277 RR:   0.000 FEB:  -0.399
USER: RMSD 3.955814
USER: SEED 161
USER: STATUS no improvement in best in 72 clusters for 5 generations
USER: GENES 15
USER: genes 0 Translation |==|  0.58024 0.27442 0.59234
USER: genes 1 Rotation |==|  0.61709 0.45440 0.61586 0.96988
USER: genes 2 Torsion [CB]-CA--N-[C] |==|  0.39171
USER: genes 3 Torsion [N]-C--CA-[N] |==|  0.44418
USER: genes 4 Torsion [C]-CA--N-[C] |==|  0.74459
USER: genes 5 Torsion [N]-C--CA-[N] |==|  0.47768
USER: genes 6 Torsion [C]-CA--N-[C] |==|  0.83177
USER: genes 7 Torsion [N]-C--CA-[N] |==|  0.04393
USER: genes 8 Torsion [N]-CA--C-[N] |==|  0.07398
USER: genes 9 Torsion [C]-N--CA-[CB] |==|  0.84109
USER: genes 10 Torsion [N]-CA--C-[N] |==|  0.39296
USER: genes 11 Torsion [C]-N--CA-[CB] |==|  0.84838
USER: genes 12 Torsion [N]-CA--C-[N] |==|  0.40373
USER: genes 13 Torsion [C]-N--CA-[C] |==|  0.76420
USER: genes 14 Torsion [N]-CA--C-[O] |==|  0.97697
ROOT
ATOM      1  CA  ALA E  11       0.585  19.569   2.856  1.00 85.35 LIG 0.17  C 
ATOM      2  CB  ALA E  11      -0.499  19.059   3.807  1.00 80.46 LIG 0.04  C 
ENDROOT
BRANCH 1 3
ATOM      3  N   ALA E  11       0.940  20.944   3.190  1.00 87.15 LIG-0.35  N 
ATOM      4  C   ALA E  10       2.211  21.347   3.130  1.00 62.15 LIG 0.24  C 
ATOM      5 O    ALA E  10       3.095  20.666   2.608  1.00 65.72 LIG-0.27  OA
ATOM      6 H    ALA E  11       0.279  21.445   3.418  1.00 87.15 LIG 0.16  HD
BRANCH 4 7
ATOM      7  CA  ALA E  10       2.548  22.706   3.734  1.00 66.45 LIG 0.17  C 
ATOM      8  CB  ALA E  10       2.116  23.828   2.791  1.00 58.63 LIG 0.04  C 
BRANCH 7 9
ATOM      9  N   ALA E  10       3.967  22.833   4.033  1.00 75.43 LIG-0.35  N 
ATOM     10  C   ALA E   9       4.489  22.521   5.217  1.00 82.21 LIG 0.24  C 
ATOM     11 O    ALA E   9       3.816  22.129   6.177  1.00 73.75 LIG-0.27  OA
ATOM     12 H    ALA E  10       4.435  23.127   3.374  1.00 75.43 LIG 0.16  HD
BRANCH 10 13
ATOM     13  CA  ALA E   9       5.995  22.700   5.352  1.00 87.65 LIG 0.17  C 
ATOM     14  CB  ALA E   9       6.747  21.732   4.442  1.00 72.21 LIG 0.04  C 
BRANCH 13 15
ATOM     15  N   ALA E   9       6.347  22.498   6.752  1.00 84.24 LIG-0.35  N 
ATOM     16 H    ALA E   9       6.893  21.847   6.887  1.00 84.24 LIG 0.16  HD
ATOM     17  C   ALA E   8       5.859  23.259   7.722  1.00 61.40 LIG 0.26  C 
ATOM     18 O    ALA E   8       5.155  24.243   7.504  1.00 66.21 LIG-0.27  OA
BRANCH 17 19
ATOM     19  CA  ALA E   8       6.245  22.870   9.146  1.00 67.03 LIG 0.40  C 
ATOM     20  N   ALA E   8       7.405  21.929   9.138  1.00 60.26 LIG 0.61  N 
ATOM     21  CB  ALA E   8       6.571  24.109   9.972  1.00 64.64 LIG 0.06  C 
ENDBRANCH 17 19
ENDBRANCH 13 15
ENDBRANCH 10 13
ENDBRANCH 7 9
ENDBRANCH 4 7
ENDBRANCH 1 3
BRANCH 1 22
ATOM     22  C   ALA E  11       0.119  19.447   1.411  1.00 81.78 LIG 0.24  C 
ATOM     23  N   ALA E  12       0.578  20.344   0.539  1.00 82.91 LIG-0.35  N 
ATOM     24 H    ALA E  12       1.199  20.915   0.706  1.00 82.91 LIG 0.16  HD
ATOM     25 O    ALA E  11      -0.667  18.552   1.076  1.00 89.30 LIG-0.27  OA
BRANCH 23 26
ATOM     26  CA  ALA E  12       0.025  20.407  -0.807  1.00 61.10 LIG 0.17  C 
ATOM     27  CB  ALA E  12       0.166  19.053  -1.518  1.00 65.27 LIG 0.04  C 
BRANCH 26 28
ATOM     28  C   ALA E  12      -1.433  20.836  -0.765  1.00 54.59 LIG 0.24  C 
ATOM     29  N   ALA E  13      -1.801  21.659  -1.747  1.00 64.78 LIG-0.35  N 
ATOM     30 H    ALA E  13      -1.286  21.888  -2.397  1.00 64.78 LIG 0.16  HD
ATOM     31 O    ALA E  12      -2.204  20.410   0.098  1.00 69.11 LIG-0.27  OA
BRANCH 29 32
ATOM     32  CA  ALA E  13      -3.129  22.250  -1.801  1.00 54.23 LIG 0.17  C 
ATOM     33  CB  ALA E  13      -4.191  21.152  -1.741  1.00 56.27 LIG 0.04  C 
BRANCH 32 34
ATOM     34  C   ALA E  13      -3.379  23.219  -0.660  1.00 65.29 LIG 0.24  C 
ATOM     35  N   ALA E  14      -4.138  24.266  -0.961  1.00 85.74 LIG-0.35  N 
ATOM     36 H    ALA E  14      -4.443  24.420  -1.750  1.00 85.74 LIG 0.16  HD
ATOM     37 O    ALA E  13      -2.950  22.998   0.475  1.00 75.52 LIG-0.27  OA
BRANCH 35 38
ATOM     38  CA  ALA E  14      -4.527  25.260   0.024  1.00 94.46 LIG 0.16  C 
ATOM     39  CB  ALA E  14      -4.775  26.590  -0.649  1.00106.12 LIG 0.04  C 
BRANCH 38 40
ATOM     40  C   ALA E  14      -5.770  24.801   0.776  1.00 99.07 LIG 0.22  C 
ATOM     41 O    ALA E  14      -6.390  23.799   0.418  1.00120.33 LIG-0.29  OA
ENDBRANCH 38 40
ENDBRANCH 35 38
ENDBRANCH 32 34
ENDBRANCH 29 32
ENDBRANCH 26 28
ENDBRANCH 23 26
ENDBRANCH 1 22
TORSDOF 13
ENDMDL
MODEL 49
USER: ADFR SOLUTION from run 162
USER: SCORE 4.197722 LL:  -2.189 LR:  -4.255 RR:   0.000 FEB:  -0.377
USER: RMSD 5.052321
USER: SEED 161
USER: STATUS no improvement in best in 72 clusters for 5 generations
USER: GENES 15
USER: genes 0 Translation |==|  0.58002 0.27674 0.59239
USER: genes 1 Rotation |==|  0.61777 0.45078 0.61079 0.97057
USER: genes 2 Torsion [CB]-CA--N-[C] |==|  0.39141
USER: genes 3 Torsion [N]-C--CA-[N] |==|  0.44449
USER: genes 4 Torsion [C]-CA--N-[C] |==|  0.74040
USER: genes 5 Torsion [N]-C--CA-[N] |==|  0.47517
USER: genes 6 Torsion [C]-CA--N-[C] |==|  0.83171
USER: genes 7 Torsion [N]-C--CA-[N] |==|  0.04416
USER: genes 8 Torsion [N]-CA--C-[N] |==|  0.90336
USER: genes 9 Torsion [C]-N--CA-[CB] |==|  0.85555
USER: genes 10 Torsion [N]-CA--C-[N] |==|  0.37279
USER: genes 11 Torsion [C]-N--CA-[CB] |==|  0.85235
USER: genes 12 Torsion [N]-CA--C-[N] |==|  0.41085
USER: genes 13 Torsion [C]-N--CA-[C] |==|  0.75968
USER: genes 14 Torsion [N]-CA--C-[O] |==|  0.97610
ROOT
ATOM      1  CA  ALA E  11       0.580  19.610   2.857  1.00 85.35 LIG 0.17  C 
ATOM      2  CB  ALA E  11      -0.523  19.119   3.796  1.00 80.46 LIG 0.04  C 
ENDROOT
BRANCH 1 3
ATOM      3  N   ALA E  11       0.963  20.975   3.204  1.00 87.15 LIG-0.35  N 
ATOM      4  C   ALA E  10       2.245  21.349   3.159  1.00 62.15 LIG 0.24  C 
ATOM      5 O    ALA E  10       3.117  20.651   2.641  1.00 65.72 LIG-0.27  OA
ATOM      6 H    ALA E  11       0.312  21.489   3.429  1.00 87.15 LIG 0.16  HD
BRANCH 4 7
ATOM      7  CA  ALA E  10       2.607  22.695   3.775  1.00 66.45 LIG 0.17  C 
ATOM      8  CB  ALA E  10       2.208  23.833   2.837  1.00 58.63 LIG 0.04  C 
BRANCH 7 9
ATOM      9  N   ALA E  10       4.025  22.788   4.086  1.00 75.43 LIG-0.35  N 
ATOM     10  C   ALA E   9       4.527  22.484   5.281  1.00 82.21 LIG 0.24  C 
ATOM     11 O    ALA E   9       3.834  22.129   6.241  1.00 73.75 LIG-0.27  OA
ATOM     12 H    ALA E  10       4.508  23.057   3.427  1.00 75.43 LIG 0.16  HD
BRANCH 10 13
ATOM     13  CA  ALA E   9       6.036  22.624   5.428  1.00 87.65 LIG 0.17  C 
ATOM     14  CB  ALA E   9       6.769  21.603   4.561  1.00 72.21 LIG 0.04  C 
BRANCH 13 15
ATOM     15  N   ALA E   9       6.366  22.459   6.838  1.00 84.24 LIG-0.35  N 
ATOM     16 H    ALA E   9       6.891  21.798   7.002  1.00 84.24 LIG 0.16  HD
ATOM     17  C   ALA E   8       5.890  23.267   7.776  1.00 61.40 LIG 0.26  C 
ATOM     18 O    ALA E   8       5.219  24.263   7.516  1.00 66.21 LIG-0.27  OA
BRANCH 17 19
ATOM     19  CA  ALA E   8       6.249  22.916   9.217  1.00 67.03 LIG 0.40  C 
ATOM     20  N   ALA E   8       7.382  21.944   9.255  1.00 60.26 LIG 0.61  N 
ATOM     21  CB  ALA E   8       6.600  24.173  10.005  1.00 64.64 LIG 0.06  C 
ENDBRANCH 17 19
ENDBRANCH 13 15
ENDBRANCH 10 13
ENDBRANCH 7 9
ENDBRANCH 4 7
ENDBRANCH 1 3
BRANCH 1 22
ATOM     22  C   ALA E  11       0.123  19.510   1.407  1.00 81.78 LIG 0.24  C 
ATOM     23  N   ALA E  12      -0.536  20.549   0.897  1.00 82.91 LIG-0.35  N 
ATOM     24 H    ALA E  12      -0.626  21.311   1.286  1.00 82.91 LIG 0.16  HD
ATOM     25 O    ALA E  11       0.351  18.491   0.744  1.00 89.30 LIG-0.27  OA
BRANCH 23 26
ATOM     26  CA  ALA E  12      -1.170  20.444  -0.410  1.00 61.10 LIG 0.17  C 
ATOM     27  CB  ALA E  12      -0.171  19.934  -1.461  1.00 65.27 LIG 0.04  C 
BRANCH 26 28
ATOM     28  C   ALA E  12      -2.384  19.532  -0.343  1.00 54.59 LIG 0.24  C 
ATOM     29  N   ALA E  13      -3.472  20.003  -0.953  1.00 64.78 LIG-0.35  N 
ATOM     30 H    ALA E  13      -3.486  20.733  -1.408  1.00 64.78 LIG 0.16  HD
ATOM     31 O    ALA E  12      -2.329  18.427   0.205  1.00 69.11 LIG-0.27  OA
BRANCH 29 32
ATOM     32  CA  ALA E  13      -4.748  19.310  -0.898  1.00 54.23 LIG 0.17  C 
ATOM     33  CB  ALA E  13      -4.573  17.857  -1.343  1.00 56.27 LIG 0.04  C 
BRANCH 32 34
ATOM     34  C   ALA E  13      -5.349  19.313   0.497  1.00 65.29 LIG 0.24  C 
ATOM     35  N   ALA E  14      -6.677  19.334   0.542  1.00 85.74 LIG-0.35  N 
ATOM     36 H    ALA E  14      -7.174  19.381  -0.158  1.00 85.74 LIG 0.16  HD
ATOM     37 O    ALA E  13      -4.639  19.237   1.502  1.00 75.52 LIG-0.27  OA
BRANCH 35 38
ATOM     38  CA  ALA E  14      -7.417  19.280   1.789  1.00 94.46 LIG 0.16  C 
ATOM     39  CB  ALA E  14      -8.740  19.998   1.641  1.00106.12 LIG 0.04  C 
BRANCH 38 40
ATOM     40  C   ALA E  14      -7.639  17.832   2.211  1.00 99.07 LIG 0.22  C 
ATOM     41 O    ALA E  14      -7.354  16.904   1.454  1.00120.33 LIG-0.29  OA
ENDBRANCH 38 40
ENDBRANCH 35 38
ENDBRANCH 32 34
ENDBRANCH 29 32
ENDBRANCH 26 28
ENDBRANCH 23 26
ENDBRANCH 1 22
TORSDOF 13
ENDMDL
MODEL 50
USER: ADFR SOLUTION from run 67
USER: SCORE 5.290828 LL:  -2.731 LR:  -4.238 RR:   0.000 FEB:  -0.360
USER: RMSD 5.223121
USER: SEED 66
USER: STATUS searching
USER: GENES 15
USER: genes 0 Translation |==|  0.63327 0.36872 0.57153
USER: genes 1 Rotation |==|  0.77411 0.53420 0.53640 0.91518
USER: genes 2 Torsion [CB]-CA--N-[C] |==|  0.17159
USER: genes 3 Torsion [N]-C--CA-[N] |==|  0.16214
USER: genes 4 Torsion [C]-CA--N-[C] |==|  0.78604
USER: genes 5 Torsion [N]-C--CA-[N] |==|  0.35751
USER: genes 6 Torsion [C]-CA--N-[C] |==|  0.84914
USER: genes 7 Torsion [N]-C--CA-[N] |==|  0.25772
USER: genes 8 Torsion [N]-CA--C-[N] |==|  0.61778
USER: genes 9 Torsion [C]-N--CA-[CB] |==|  0.18889
USER: genes 10 Torsion [N]-CA--C-[N] |==|  0.10101
USER: genes 11 Torsion [C]-N--CA-[CB] |==|  0.18075
USER: genes 12 Torsion [N]-CA--C-[N] |==|  0.11603
USER: genes 13 Torsion [C]-N--CA-[C] |==|  0.17246
USER: genes 14 Torsion [N]-CA--C-[O] |==|  0.07271
ROOT
ATOM      1  CA  ALA E  11       1.779  21.266   2.482  1.00 85.35 LIG 0.17  C 
ATOM      2  CB  ALA E  11       1.111  20.255   3.416  1.00 80.46 LIG 0.04  C 
ENDROOT
BRANCH 1 3
ATOM      3  N   ALA E  11       2.580  22.209   3.253  1.00 87.15 LIG-0.35  N 
ATOM      4  C   ALA E  10       3.612  21.780   3.984  1.00 62.15 LIG 0.24  C 
ATOM      5 O    ALA E  10       4.058  20.636   3.886  1.00 65.72 LIG-0.27  OA
ATOM      6 H    ALA E  11       2.333  23.031   3.194  1.00 87.15 LIG 0.16  HD
BRANCH 4 7
ATOM      7  CA  ALA E  10       4.242  22.766   4.961  1.00 66.45 LIG 0.17  C 
ATOM      8  CB  ALA E  10       5.417  22.115   5.690  1.00 58.63 LIG 0.04  C 
BRANCH 7 9
ATOM      9  N   ALA E  10       3.276  23.264   5.930  1.00 75.43 LIG-0.35  N 
ATOM     10  C   ALA E   9       2.369  24.193   5.638  1.00 82.21 LIG 0.24  C 
ATOM     11 O    ALA E   9       2.285  24.739   4.533  1.00 73.75 LIG-0.27  OA
ATOM     12 H    ALA E  10       3.347  22.902   6.708  1.00 75.43 LIG 0.16  HD
BRANCH 10 13
ATOM     13  CA  ALA E   9       1.427  24.587   6.768  1.00 87.65 LIG 0.17  C 
ATOM     14  CB  ALA E   9       0.015  24.066   6.512  1.00 72.21 LIG 0.04  C 
BRANCH 13 15
ATOM     15  N   ALA E   9       1.447  26.040   6.881  1.00 84.24 LIG-0.35  N 
ATOM     16 H    ALA E   9       0.670  26.407   6.838  1.00 84.24 LIG 0.16  HD
ATOM     17  C   ALA E   8       2.572  26.724   7.035  1.00 61.40 LIG 0.26  C 
ATOM     18 O    ALA E   8       3.664  26.180   7.188  1.00 66.21 LIG-0.27  OA
BRANCH 17 19
ATOM     19  CA  ALA E   8       2.444  28.244   7.046  1.00 67.03 LIG 0.40  C 
ATOM     20  N   ALA E   8       2.292  28.749   8.443  1.00 60.26 LIG 0.61  N 
ATOM     21  CB  ALA E   8       3.651  28.890   6.375  1.00 64.64 LIG 0.06  C 
ENDBRANCH 17 19
ENDBRANCH 13 15
ENDBRANCH 10 13
ENDBRANCH 7 9
ENDBRANCH 4 7
ENDBRANCH 1 3
BRANCH 1 22
ATOM     22  C   ALA E  11       0.728  21.982   1.642  1.00 81.78 LIG 0.24  C 
ATOM     23  N   ALA E  12      -0.492  21.450   1.599  1.00 82.91 LIG-0.35  N 
ATOM     24 H    ALA E  12      -0.760  20.799   2.094  1.00 82.91 LIG 0.16  HD
ATOM     25 O    ALA E  11       1.015  23.011   1.018  1.00 89.30 LIG-0.27  OA
BRANCH 23 26
ATOM     26  CA  ALA E  12      -1.485  21.967   0.667  1.00 61.10 LIG 0.17  C 
ATOM     27  CB  ALA E  12      -1.088  21.650  -0.783  1.00 65.27 LIG 0.04  C 
BRANCH 26 28
ATOM     28  C   ALA E  12      -2.858  21.394   0.979  1.00 54.59 LIG 0.24  C 
ATOM     29  N   ALA E  13      -3.112  21.226   2.277  1.00 64.78 LIG-0.35  N 
ATOM     30 H    ALA E  13      -2.579  21.477   2.904  1.00 64.78 LIG 0.16  HD
ATOM     31 O    ALA E  12      -3.671  21.148   0.084  1.00 69.11 LIG-0.27  OA
BRANCH 29 32
ATOM     32  CA  ALA E  13      -4.333  20.594   2.749  1.00 54.23 LIG 0.17  C 
ATOM     33  CB  ALA E  13      -4.366  19.129   2.311  1.00 56.27 LIG 0.04  C 
BRANCH 32 34
ATOM     34  C   ALA E  13      -4.464  20.643   4.261  1.00 65.29 LIG 0.24  C 
ATOM     35  N   ALA E  14      -4.114  21.795   4.823  1.00 85.74 LIG-0.35  N 
ATOM     36 H    ALA E  14      -3.799  22.461   4.381  1.00 85.74 LIG 0.16  HD
ATOM     37 O    ALA E  13      -4.923  19.691   4.897  1.00 75.52 LIG-0.27  OA
BRANCH 35 38
ATOM     38  CA  ALA E  14      -4.233  22.036   6.250  1.00 94.46 LIG 0.16  C 
ATOM     39  CB  ALA E  14      -5.675  21.901   6.682  1.00106.12 LIG 0.04  C 
BRANCH 38 40
ATOM     40  C   ALA E  14      -3.349  21.067   7.027  1.00 99.07 LIG 0.22  C 
ATOM     41 O    ALA E  14      -2.344  20.579   6.510  1.00120.33 LIG-0.29  OA
ENDBRANCH 38 40
ENDBRANCH 35 38
ENDBRANCH 32 34
ENDBRANCH 29 32
ENDBRANCH 26 28
ENDBRANCH 23 26
ENDBRANCH 1 22
TORSDOF 13
ENDMDL
MODEL 51
USER: ADFR SOLUTION from run 170
USER: SCORE 5.384912 LL:  -2.320 LR:  -4.235 RR:   0.000 FEB:  -0.357
USER: RMSD 3.762924
USER: SEED 169
USER: STATUS no improvement in best in 65 clusters for 5 generations
USER: GENES 15
USER: genes 0 Translation |==|  0.57814 0.22993 0.60562
USER: genes 1 Rotation |==|  0.76745 0.78014 0.57503 0.80719
USER: genes 2 Torsion [CB]-CA--N-[C] |==|  0.14822
USER: genes 3 Torsion [N]-C--CA-[N] |==|  0.43694
USER: genes 4 Torsion [C]-CA--N-[C] |==|  0.63199
USER: genes 5 Torsion [N]-C--CA-[N] |==|  0.16762
USER: genes 6 Torsion [C]-CA--N-[C] |==|  0.78783
USER: genes 7 Torsion [N]-C--CA-[N] |==|  0.90255
USER: genes 8 Torsion [N]-CA--C-[N] |==|  0.13040
USER: genes 9 Torsion [C]-N--CA-[CB] |==|  0.20511
USER: genes 10 Torsion [N]-CA--C-[N] |==|  0.07535
USER: genes 11 Torsion [C]-N--CA-[CB] |==|  0.84320
USER: genes 12 Torsion [N]-CA--C-[N] |==|  0.38948
USER: genes 13 Torsion [C]-N--CA-[C] |==|  0.75531
USER: genes 14 Torsion [N]-CA--C-[O] |==|  0.99086
ROOT
ATOM      1  CA  ALA E  11       0.538  18.768   3.095  1.00 85.35 LIG 0.17  C 
ATOM      2  CB  ALA E  11       1.428  17.705   3.744  1.00 80.46 LIG 0.04  C 
ENDROOT
BRANCH 1 3
ATOM      3  N   ALA E  11       0.944  20.098   3.534  1.00 87.15 LIG-0.35  N 
ATOM      4  C   ALA E  10       2.214  20.492   3.411  1.00 62.15 LIG 0.24  C 
ATOM      5 O    ALA E  10       3.040  19.857   2.754  1.00 65.72 LIG-0.27  OA
ATOM      6 H    ALA E  11       0.313  20.581   3.864  1.00 87.15 LIG 0.16  HD
BRANCH 4 7
ATOM      7  CA  ALA E  10       2.624  21.779   4.118  1.00 66.45 LIG 0.17  C 
ATOM      8  CB  ALA E  10       2.196  22.995   3.297  1.00 58.63 LIG 0.04  C 
BRANCH 7 9
ATOM      9  N   ALA E  10       4.057  21.832   4.366  1.00 75.43 LIG-0.35  N 
ATOM     10  C   ALA E   9       4.578  22.169   5.543  1.00 82.21 LIG 0.24  C 
ATOM     11 O    ALA E   9       3.896  22.499   6.520  1.00 73.75 LIG-0.27  OA
ATOM     12 H    ALA E  10       4.535  21.626   3.681  1.00 75.43 LIG 0.16  HD
BRANCH 10 13
ATOM     13  CA  ALA E   9       6.098  22.159   5.631  1.00 87.65 LIG 0.17  C 
ATOM     14  CB  ALA E   9       6.568  22.496   7.044  1.00 72.21 LIG 0.04  C 
BRANCH 13 15
ATOM     15  N   ALA E   9       6.609  23.116   4.657  1.00 84.24 LIG-0.35  N 
ATOM     16 H    ALA E   9       6.878  23.857   5.001  1.00 84.24 LIG 0.16  HD
ATOM     17  C   ALA E   8       6.648  22.852   3.359  1.00 61.40 LIG 0.26  C 
ATOM     18 O    ALA E   8       6.348  21.754   2.894  1.00 66.21 LIG-0.27  OA
BRANCH 17 19
ATOM     19  CA  ALA E   8       7.124  23.984   2.453  1.00 67.03 LIG 0.40  C 
ATOM     20  N   ALA E   8       6.669  25.306   2.979  1.00 60.26 LIG 0.61  N 
ATOM     21  CB  ALA E   8       8.642  23.961   2.315  1.00 64.64 LIG 0.06  C 
ENDBRANCH 17 19
ENDBRANCH 13 15
ENDBRANCH 10 13
ENDBRANCH 7 9
ENDBRANCH 4 7
ENDBRANCH 1 3
BRANCH 1 22
ATOM     22  C   ALA E  11      -0.927  18.497   3.416  1.00 81.78 LIG 0.24  C 
ATOM     23  N   ALA E  12      -1.810  19.444   3.105  1.00 82.91 LIG-0.35  N 
ATOM     24 H    ALA E  12      -1.632  20.146   2.640  1.00 82.91 LIG 0.16  HD
ATOM     25 O    ALA E  11      -1.267  17.437   3.956  1.00 89.30 LIG-0.27  OA
BRANCH 23 26
ATOM     26  CA  ALA E  12      -3.190  19.336   3.558  1.00 61.10 LIG 0.17  C 
ATOM     27  CB  ALA E  12      -3.295  19.631   5.062  1.00 65.27 LIG 0.04  C 
BRANCH 26 28
ATOM     28  C   ALA E  12      -4.085  20.278   2.768  1.00 54.59 LIG 0.24  C 
ATOM     29  N   ALA E  13      -3.652  20.561   1.539  1.00 64.78 LIG-0.35  N 
ATOM     30 H    ALA E  13      -2.959  20.198   1.181  1.00 64.78 LIG 0.16  HD
ATOM     31 O    ALA E  12      -5.144  20.702   3.236  1.00 69.11 LIG-0.27  OA
BRANCH 29 32
ATOM     32  CA  ALA E  13      -4.328  21.524   0.685  1.00 54.23 LIG 0.17  C 
ATOM     33  CB  ALA E  13      -5.794  21.124   0.507  1.00 56.27 LIG 0.04  C 
BRANCH 32 34
ATOM     34  C   ALA E  13      -4.283  22.932   1.251  1.00 65.29 LIG 0.24  C 
ATOM     35  N   ALA E  14      -4.084  23.895   0.358  1.00 85.74 LIG-0.35  N 
ATOM     36 H    ALA E  14      -3.951  23.747  -0.478  1.00 85.74 LIG 0.16  HD
ATOM     37 O    ALA E  13      -4.481  23.149   2.449  1.00 75.52 LIG-0.27  OA
BRANCH 35 38
ATOM     38  CA  ALA E  14      -4.072  25.302   0.716  1.00 94.46 LIG 0.16  C 
ATOM     39  CB  ALA E  14      -3.149  26.066  -0.206  1.00106.12 LIG 0.04  C 
BRANCH 38 40
ATOM     40  C   ALA E  14      -5.483  25.876   0.656  1.00 99.07 LIG 0.22  C 
ATOM     41 O    ALA E  14      -6.429  25.184   0.280  1.00120.33 LIG-0.29  OA
ENDBRANCH 38 40
ENDBRANCH 35 38
ENDBRANCH 32 34
ENDBRANCH 29 32
ENDBRANCH 26 28
ENDBRANCH 23 26
ENDBRANCH 1 22
TORSDOF 13
ENDMDL
MODEL 52
USER: ADFR SOLUTION from run 105
USER: SCORE 5.436815 LL:  -3.221 LR:  -4.217 RR:   0.000 FEB:  -0.339
USER: RMSD 5.893880
USER: SEED 104
USER: STATUS no improvement in best in 73 clusters for 5 generations
USER: GENES 15
USER: genes 0 Translation |==|  0.60313 0.28035 0.53529
USER: genes 1 Rotation |==|  0.78229 0.63131 0.53559 0.88962
USER: genes 2 Torsion [CB]-CA--N-[C] |==|  0.81659
USER: genes 3 Torsion [N]-C--CA-[N] |==|  0.84927
USER: genes 4 Torsion [C]-CA--N-[C] |==|  0.71309
USER: genes 5 Torsion [N]-C--CA-[N] |==|  0.14276
USER: genes 6 Torsion [C]-CA--N-[C] |==|  0.75201
USER: genes 7 Torsion [N]-C--CA-[N] |==|  0.72433
USER: genes 8 Torsion [N]-CA--C-[N] |==|  0.04717
USER: genes 9 Torsion [C]-N--CA-[CB] |==|  0.78411
USER: genes 10 Torsion [N]-CA--C-[N] |==|  0.16261
USER: genes 11 Torsion [C]-N--CA-[CB] |==|  0.17025
USER: genes 12 Torsion [N]-CA--C-[N] |==|  0.09560
USER: genes 13 Torsion [C]-N--CA-[C] |==|  0.73695
USER: genes 14 Torsion [N]-CA--C-[O] |==|  0.00424
ROOT
ATOM      1  CA  ALA E  11       1.100  19.675   1.829  1.00 85.35 LIG 0.17  C 
ATOM      2  CB  ALA E  11       1.000  18.526   2.834  1.00 80.46 LIG 0.04  C 
ENDROOT
BRANCH 1 3
ATOM      3  N   ALA E  11       1.905  20.758   2.384  1.00 87.15 LIG-0.35  N 
ATOM      4  C   ALA E  10       1.472  21.447   3.444  1.00 62.15 LIG 0.24  C 
ATOM      5 O    ALA E  10       0.505  21.084   4.115  1.00 65.72 LIG-0.27  OA
ATOM      6 H    ALA E  11       2.650  20.902   1.980  1.00 87.15 LIG 0.16  HD
BRANCH 4 7
ATOM      7  CA  ALA E  10       2.226  22.720   3.812  1.00 66.45 LIG 0.17  C 
ATOM      8  CB  ALA E  10       2.010  23.792   2.745  1.00 58.63 LIG 0.04  C 
BRANCH 7 9
ATOM      9  N   ALA E  10       3.650  22.478   3.986  1.00 75.43 LIG-0.35  N 
ATOM     10  C   ALA E   9       4.232  22.398   5.181  1.00 82.21 LIG 0.24  C 
ATOM     11 O    ALA E   9       3.624  22.555   6.246  1.00 73.75 LIG-0.27  OA
ATOM     12 H    ALA E  10       4.081  22.392   3.246  1.00 75.43 LIG 0.16  HD
BRANCH 10 13
ATOM     13  CA  ALA E   9       5.730  22.126   5.180  1.00 87.65 LIG 0.17  C 
ATOM     14  CB  ALA E   9       6.304  22.208   6.593  1.00 72.21 LIG 0.04  C 
BRANCH 13 15
ATOM     15  N   ALA E   9       6.360  23.094   4.291  1.00 84.24 LIG-0.35  N 
ATOM     16 H    ALA E   9       6.611  23.819   4.682  1.00 84.24 LIG 0.16  HD
ATOM     17  C   ALA E   8       6.525  22.865   2.996  1.00 61.40 LIG 0.26  C 
ATOM     18 O    ALA E   8       6.246  21.789   2.471  1.00 66.21 LIG-0.27  OA
BRANCH 17 19
ATOM     19  CA  ALA E   8       7.117  24.008   2.177  1.00 67.03 LIG 0.40  C 
ATOM     20  N   ALA E   8       6.040  24.757   1.462  1.00 60.26 LIG 0.61  N 
ATOM     21  CB  ALA E   8       7.917  24.950   3.069  1.00 64.64 LIG 0.06  C 
ENDBRANCH 17 19
ENDBRANCH 13 15
ENDBRANCH 10 13
ENDBRANCH 7 9
ENDBRANCH 4 7
ENDBRANCH 1 3
BRANCH 1 22
ATOM     22  C   ALA E  11      -0.291  20.157   1.439  1.00 81.78 LIG 0.24  C 
ATOM     23  N   ALA E  12      -0.475  21.470   1.313  1.00 82.91 LIG-0.35  N 
ATOM     24 H    ALA E  12       0.155  22.056   1.327  1.00 82.91 LIG 0.16  HD
ATOM     25 O    ALA E  11      -1.210  19.348   1.260  1.00 89.30 LIG-0.27  OA
BRANCH 23 26
ATOM     26  CA  ALA E  12      -1.816  22.009   1.135  1.00 61.10 LIG 0.17  C 
ATOM     27  CB  ALA E  12      -2.295  21.814  -0.311  1.00 65.27 LIG 0.04  C 
BRANCH 26 28
ATOM     28  C   ALA E  12      -2.786  21.358   2.108  1.00 54.59 LIG 0.24  C 
ATOM     29  N   ALA E  13      -2.468  21.502   3.395  1.00 64.78 LIG-0.35  N 
ATOM     30 H    ALA E  13      -1.808  21.978   3.673  1.00 64.78 LIG 0.16  HD
ATOM     31 O    ALA E  12      -3.801  20.779   1.714  1.00 69.11 LIG-0.27  OA
BRANCH 29 32
ATOM     32  CA  ALA E  13      -3.226  20.857   4.454  1.00 54.23 LIG 0.17  C 
ATOM     33  CB  ALA E  13      -3.163  19.338   4.290  1.00 56.27 LIG 0.04  C 
BRANCH 32 34
ATOM     34  C   ALA E  13      -2.707  21.210   5.836  1.00 65.29 LIG 0.24  C 
ATOM     35  N   ALA E  14      -2.236  22.445   5.966  1.00 85.74 LIG-0.35  N 
ATOM     36 H    ALA E  14      -2.186  23.004   5.315  1.00 85.74 LIG 0.16  HD
ATOM     37 O    ALA E  13      -2.784  20.412   6.774  1.00 75.52 LIG-0.27  OA
BRANCH 35 38
ATOM     38  CA  ALA E  14      -1.756  22.969   7.232  1.00 94.46 LIG 0.16  C 
ATOM     39  CB  ALA E  14      -0.560  23.865   7.004  1.00106.12 LIG 0.04  C 
BRANCH 38 40
ATOM     40  C   ALA E  14      -2.867  23.731   7.945  1.00 99.07 LIG 0.22  C 
ATOM     41 O    ALA E  14      -3.992  23.811   7.453  1.00120.33 LIG-0.29  OA
ENDBRANCH 38 40
ENDBRANCH 35 38
ENDBRANCH 32 34
ENDBRANCH 29 32
ENDBRANCH 26 28
ENDBRANCH 23 26
ENDBRANCH 1 22
TORSDOF 13
ENDMDL
MODEL 53
USER: ADFR SOLUTION from run 170
USER: SCORE 5.286085 LL:  -2.451 LR:  -4.222 RR:   0.000 FEB:  -0.344
USER: RMSD 4.317510
USER: SEED 169
USER: STATUS no improvement in best in 65 clusters for 5 generations
USER: GENES 15
USER: genes 0 Translation |==|  0.57813 0.22994 0.60560
USER: genes 1 Rotation |==|  0.76724 0.78034 0.57514 0.80716
USER: genes 2 Torsion [CB]-CA--N-[C] |==|  0.14832
USER: genes 3 Torsion [N]-C--CA-[N] |==|  0.43705
USER: genes 4 Torsion [C]-CA--N-[C] |==|  0.63204
USER: genes 5 Torsion [N]-C--CA-[N] |==|  0.16767
USER: genes 6 Torsion [C]-CA--N-[C] |==|  0.78784
USER: genes 7 Torsion [N]-C--CA-[N] |==|  0.90256
USER: genes 8 Torsion [N]-CA--C-[N] |==|  0.13041
USER: genes 9 Torsion [C]-N--CA-[CB] |==|  0.20510
USER: genes 10 Torsion [N]-CA--C-[N] |==|  0.07534
USER: genes 11 Torsion [C]-N--CA-[CB] |==|  0.16511
USER: genes 12 Torsion [N]-CA--C-[N] |==|  0.07998
USER: genes 13 Torsion [C]-N--CA-[C] |==|  0.76736
USER: genes 14 Torsion [N]-CA--C-[O] |==|  0.98211
ROOT
ATOM      1  CA  ALA E  11       0.538  18.768   3.095  1.00 85.35 LIG 0.17  C 
ATOM      2  CB  ALA E  11       1.429  17.707   3.744  1.00 80.46 LIG 0.04  C 
ENDROOT
BRANCH 1 3
ATOM      3  N   ALA E  11       0.942  20.099   3.533  1.00 87.15 LIG-0.35  N 
ATOM      4  C   ALA E  10       2.212  20.495   3.409  1.00 62.15 LIG 0.24  C 
ATOM      5 O    ALA E  10       3.038  19.861   2.752  1.00 65.72 LIG-0.27  OA
ATOM      6 H    ALA E  11       0.311  20.581   3.864  1.00 87.15 LIG 0.16  HD
BRANCH 4 7
ATOM      7  CA  ALA E  10       2.621  21.783   4.115  1.00 66.45 LIG 0.17  C 
ATOM      8  CB  ALA E  10       2.190  22.997   3.295  1.00 58.63 LIG 0.04  C 
BRANCH 7 9
ATOM      9  N   ALA E  10       4.054  21.838   4.361  1.00 75.43 LIG-0.35  N 
ATOM     10  C   ALA E   9       4.575  22.175   5.539  1.00 82.21 LIG 0.24  C 
ATOM     11 O    ALA E   9       3.894  22.504   6.516  1.00 73.75 LIG-0.27  OA
ATOM     12 H    ALA E  10       4.532  21.632   3.676  1.00 75.43 LIG 0.16  HD
BRANCH 10 13
ATOM     13  CA  ALA E   9       6.096  22.168   5.624  1.00 87.65 LIG 0.17  C 
ATOM     14  CB  ALA E   9       6.567  22.504   7.037  1.00 72.21 LIG 0.04  C 
BRANCH 13 15
ATOM     15  N   ALA E   9       6.604  23.126   4.650  1.00 84.24 LIG-0.35  N 
ATOM     16 H    ALA E   9       6.872  23.867   4.994  1.00 84.24 LIG 0.16  HD
ATOM     17  C   ALA E   8       6.642  22.863   3.351  1.00 61.40 LIG 0.26  C 
ATOM     18 O    ALA E   8       6.343  21.765   2.887  1.00 66.21 LIG-0.27  OA
BRANCH 17 19
ATOM     19  CA  ALA E   8       7.114  23.996   2.446  1.00 67.03 LIG 0.40  C 
ATOM     20  N   ALA E   8       6.658  25.317   2.974  1.00 60.26 LIG 0.61  N 
ATOM     21  CB  ALA E   8       8.632  23.976   2.306  1.00 64.64 LIG 0.06  C 
ENDBRANCH 17 19
ENDBRANCH 13 15
ENDBRANCH 10 13
ENDBRANCH 7 9
ENDBRANCH 4 7
ENDBRANCH 1 3
BRANCH 1 22
ATOM     22  C   ALA E  11      -0.926  18.495   3.416  1.00 81.78 LIG 0.24  C 
ATOM     23  N   ALA E  12      -1.811  19.441   3.105  1.00 82.91 LIG-0.35  N 
ATOM     24 H    ALA E  12      -1.634  20.143   2.640  1.00 82.91 LIG 0.16  HD
ATOM     25 O    ALA E  11      -1.266  17.435   3.956  1.00 89.30 LIG-0.27  OA
BRANCH 23 26
ATOM     26  CA  ALA E  12      -3.191  19.332   3.558  1.00 61.10 LIG 0.17  C 
ATOM     27  CB  ALA E  12      -3.296  19.628   5.062  1.00 65.27 LIG 0.04  C 
BRANCH 26 28
ATOM     28  C   ALA E  12      -4.087  20.272   2.768  1.00 54.59 LIG 0.24  C 
ATOM     29  N   ALA E  13      -3.654  20.555   1.539  1.00 64.78 LIG-0.35  N 
ATOM     30 H    ALA E  13      -2.961  20.193   1.181  1.00 64.78 LIG 0.16  HD
ATOM     31 O    ALA E  12      -5.147  20.696   3.236  1.00 69.11 LIG-0.27  OA
BRANCH 29 32
ATOM     32  CA  ALA E  13      -4.332  21.517   0.685  1.00 54.23 LIG 0.17  C 
ATOM     33  CB  ALA E  13      -4.360  22.888   1.362  1.00 56.27 LIG 0.04  C 
BRANCH 32 34
ATOM     34  C   ALA E  13      -3.659  21.666  -0.667  1.00 65.29 LIG 0.24  C 
ATOM     35  N   ALA E  14      -3.016  20.588  -1.103  1.00 85.74 LIG-0.35  N 
ATOM     36 H    ALA E  14      -2.945  19.863  -0.648  1.00 85.74 LIG 0.16  HD
ATOM     37 O    ALA E  13      -3.766  22.703  -1.327  1.00 75.52 LIG-0.27  OA
BRANCH 35 38
ATOM     38  CA  ALA E  14      -2.369  20.536  -2.401  1.00 94.46 LIG 0.16  C 
ATOM     39  CB  ALA E  14      -1.240  19.530  -2.379  1.00106.12 LIG 0.04  C 
BRANCH 38 40
ATOM     40  C   ALA E  14      -3.381  20.180  -3.484  1.00 99.07 LIG 0.22  C 
ATOM     41 O    ALA E  14      -4.535  19.868  -3.191  1.00120.33 LIG-0.29  OA
ENDBRANCH 38 40
ENDBRANCH 35 38
ENDBRANCH 32 34
ENDBRANCH 29 32
ENDBRANCH 26 28
ENDBRANCH 23 26
ENDBRANCH 1 22
TORSDOF 13
ENDMDL
MODEL 54
USER: ADFR SOLUTION from run 77
USER: SCORE 5.212972 LL:  -2.554 LR:  -4.215 RR:   0.000 FEB:  -0.337
USER: RMSD 6.022897
USER: SEED 76
USER: STATUS no improvement in best in 65 clusters for 5 generations
USER: GENES 15
USER: genes 0 Translation |==|  0.66462 0.32468 0.57783
USER: genes 1 Rotation |==|  0.72465 0.63786 0.54381 0.92262
USER: genes 2 Torsion [CB]-CA--N-[C] |==|  0.13398
USER: genes 3 Torsion [N]-C--CA-[N] |==|  0.10970
USER: genes 4 Torsion [C]-CA--N-[C] |==|  0.19331
USER: genes 5 Torsion [N]-C--CA-[N] |==|  0.94770
USER: genes 6 Torsion [C]-CA--N-[C] |==|  0.79982
USER: genes 7 Torsion [N]-C--CA-[N] |==|  0.31092
USER: genes 8 Torsion [N]-CA--C-[N] |==|  0.88299
USER: genes 9 Torsion [C]-N--CA-[CB] |==|  0.84862
USER: genes 10 Torsion [N]-CA--C-[N] |==|  0.40022
USER: genes 11 Torsion [C]-N--CA-[CB] |==|  0.84431
USER: genes 12 Torsion [N]-CA--C-[N] |==|  0.40325
USER: genes 13 Torsion [C]-N--CA-[C] |==|  0.18321
USER: genes 14 Torsion [N]-CA--C-[O] |==|  0.07890
ROOT
ATOM      1  CA  ALA E  11       2.484  20.473   2.595  1.00 85.35 LIG 0.17  C 
ATOM      2  CB  ALA E  11       2.421  19.598   3.848  1.00 80.46 LIG 0.04  C 
ENDROOT
BRANCH 1 3
ATOM      3  N   ALA E  11       3.159  21.731   2.894  1.00 87.15 LIG-0.35  N 
ATOM      4  C   ALA E  10       4.322  21.735   3.551  1.00 62.15 LIG 0.24  C 
ATOM      5 O    ALA E  10       4.970  20.706   3.748  1.00 65.72 LIG-0.27  OA
ATOM      6 H    ALA E  11       2.752  22.437   2.619  1.00 87.15 LIG 0.16  HD
BRANCH 4 7
ATOM      7  CA  ALA E  10       4.842  23.076   4.056  1.00 66.45 LIG 0.17  C 
ATOM      8  CB  ALA E  10       5.905  22.862   5.132  1.00 58.63 LIG 0.04  C 
BRANCH 7 9
ATOM      9  N   ALA E  10       3.772  23.911   4.580  1.00 75.43 LIG-0.35  N 
ATOM     10  C   ALA E   9       3.123  23.635   5.709  1.00 82.21 LIG 0.24  C 
ATOM     11 O    ALA E   9       3.345  22.631   6.395  1.00 73.75 LIG-0.27  OA
ATOM     12 H    ALA E  10       3.598  24.599   4.093  1.00 75.43 LIG 0.16  HD
BRANCH 10 13
ATOM     13  CA  ALA E   9       2.040  24.624   6.118  1.00 87.65 LIG 0.17  C 
ATOM     14  CB  ALA E   9       0.649  24.068   5.821  1.00 72.21 LIG 0.04  C 
BRANCH 13 15
ATOM     15  N   ALA E   9       2.279  25.871   5.403  1.00 84.24 LIG-0.35  N 
ATOM     16 H    ALA E   9       1.713  26.031   4.775  1.00 84.24 LIG 0.16  HD
ATOM     17  C   ALA E   8       3.287  26.679   5.705  1.00 61.40 LIG 0.26  C 
ATOM     18 O    ALA E   8       4.030  26.483   6.664  1.00 66.21 LIG-0.27  OA
BRANCH 17 19
ATOM     19  CA  ALA E   8       3.464  27.902   4.810  1.00 67.03 LIG 0.40  C 
ATOM     20  N   ALA E   8       3.157  29.155   5.563  1.00 60.26 LIG 0.61  N 
ATOM     21  CB  ALA E   8       4.880  27.954   4.246  1.00 64.64 LIG 0.06  C 
ENDBRANCH 17 19
ENDBRANCH 13 15
ENDBRANCH 10 13
ENDBRANCH 7 9
ENDBRANCH 4 7
ENDBRANCH 1 3
BRANCH 1 22
ATOM     22  C   ALA E  11       1.082  20.708   2.045  1.00 81.78 LIG 0.24  C 
ATOM     23  N   ALA E  12       0.343  21.650   2.629  1.00 82.91 LIG-0.35  N 
ATOM     24 H    ALA E  12       0.634  22.207   3.216  1.00 82.91 LIG 0.16  HD
ATOM     25 O    ALA E  11       0.655  20.034   1.101  1.00 89.30 LIG-0.27  OA
BRANCH 23 26
ATOM     26  CA  ALA E  12      -1.065  21.794   2.286  1.00 61.10 LIG 0.17  C 
ATOM     27  CB  ALA E  12      -1.243  21.963   0.770  1.00 65.27 LIG 0.04  C 
BRANCH 26 28
ATOM     28  C   ALA E  12      -1.860  20.597   2.784  1.00 54.59 LIG 0.24  C 
ATOM     29  N   ALA E  13      -3.088  20.883   3.217  1.00 64.78 LIG-0.35  N 
ATOM     30 H    ALA E  13      -3.443  21.664   3.166  1.00 64.78 LIG 0.16  HD
ATOM     31 O    ALA E  12      -1.395  19.455   2.744  1.00 69.11 LIG-0.27  OA
BRANCH 29 32
ATOM     32  CA  ALA E  13      -3.946  19.877   3.823  1.00 54.23 LIG 0.17  C 
ATOM     33  CB  ALA E  13      -4.119  18.695   2.869  1.00 56.27 LIG 0.04  C 
BRANCH 32 34
ATOM     34  C   ALA E  13      -3.388  19.354   5.135  1.00 65.29 LIG 0.24  C 
ATOM     35  N   ALA E  14      -4.295  19.053   6.057  1.00 85.74 LIG-0.35  N 
ATOM     36 H    ALA E  14      -5.139  19.175   5.949  1.00 85.74 LIG 0.16  HD
ATOM     37 O    ALA E  13      -2.178  19.170   5.289  1.00 75.52 LIG-0.27  OA
BRANCH 35 38
ATOM     38  CA  ALA E  14      -3.941  18.484   7.345  1.00 94.46 LIG 0.16  C 
ATOM     39  CB  ALA E  14      -3.154  17.209   7.152  1.00106.12 LIG 0.04  C 
BRANCH 38 40
ATOM     40  C   ALA E  14      -3.140  19.489   8.165  1.00 99.07 LIG 0.22  C 
ATOM     41 O    ALA E  14      -3.295  20.700   8.006  1.00120.33 LIG-0.29  OA
ENDBRANCH 38 40
ENDBRANCH 35 38
ENDBRANCH 32 34
ENDBRANCH 29 32
ENDBRANCH 26 28
ENDBRANCH 23 26
ENDBRANCH 1 22
TORSDOF 13
ENDMDL
MODEL 55
USER: ADFR SOLUTION from run 6
USER: SCORE 4.854459 LL:  -2.454 LR:  -4.207 RR:   0.000 FEB:  -0.329
USER: RMSD 4.344024
USER: SEED 322608
USER: STATUS no improvement in best in 62 clusters for 5 generations
USER: GENES 15
USER: genes 0 Translation |==|  0.65610 0.34029 0.56638
USER: genes 1 Rotation |==|  0.61727 0.47825 0.44686 0.98265
USER: genes 2 Torsion [CB]-CA--N-[C] |==|  0.16228
USER: genes 3 Torsion [N]-C--CA-[N] |==|  0.30436
USER: genes 4 Torsion [C]-CA--N-[C] |==|  0.86718
USER: genes 5 Torsion [N]-C--CA-[N] |==|  0.97213
USER: genes 6 Torsion [C]-CA--N-[C] |==|  0.80018
USER: genes 7 Torsion [N]-C--CA-[N] |==|  0.27235
USER: genes 8 Torsion [N]-CA--C-[N] |==|  0.87256
USER: genes 9 Torsion [C]-N--CA-[CB] |==|  0.84443
USER: genes 10 Torsion [N]-CA--C-[N] |==|  0.41750
USER: genes 11 Torsion [C]-N--CA-[CB] |==|  0.84684
USER: genes 12 Torsion [N]-CA--C-[N] |==|  0.37648
USER: genes 13 Torsion [C]-N--CA-[C] |==|  0.57322
USER: genes 14 Torsion [N]-CA--C-[O] |==|  0.02160
ROOT
ATOM      1  CA  ALA E  11       2.292  20.754   2.389  1.00 85.35 LIG 0.17  C 
ATOM      2  CB  ALA E  11       1.370  20.878   3.603  1.00 80.46 LIG 0.04  C 
ENDROOT
BRANCH 1 3
ATOM      3  N   ALA E  11       3.456  21.618   2.552  1.00 87.15 LIG-0.35  N 
ATOM      4  C   ALA E  10       4.267  21.468   3.603  1.00 62.15 LIG 0.24  C 
ATOM      5 O    ALA E  10       4.198  20.494   4.354  1.00 65.72 LIG-0.27  OA
ATOM      6 H    ALA E  11       3.563  22.206   1.933  1.00 87.15 LIG 0.16  HD
BRANCH 4 7
ATOM      7  CA  ALA E  10       5.305  22.556   3.853  1.00 66.45 LIG 0.17  C 
ATOM      8  CB  ALA E  10       6.696  21.941   3.995  1.00 58.63 LIG 0.04  C 
BRANCH 7 9
ATOM      9  N   ALA E  10       4.993  23.346   5.035  1.00 75.43 LIG-0.35  N 
ATOM     10  C   ALA E   9       3.784  23.851   5.272  1.00 82.21 LIG 0.24  C 
ATOM     11 O    ALA E   9       2.829  23.725   4.496  1.00 73.75 LIG-0.27  OA
ATOM     12 H    ALA E  10       5.661  23.455   5.566  1.00 75.43 LIG 0.16  HD
BRANCH 10 13
ATOM     13  CA  ALA E   9       3.629  24.640   6.565  1.00 87.65 LIG 0.17  C 
ATOM     14  CB  ALA E   9       3.390  26.121   6.277  1.00 72.21 LIG 0.04  C 
BRANCH 13 15
ATOM     15  N   ALA E   9       4.835  24.440   7.358  1.00 84.24 LIG-0.35  N 
ATOM     16 H    ALA E   9       5.348  25.129   7.399  1.00 84.24 LIG 0.16  HD
ATOM     17  C   ALA E   8       5.104  23.289   7.960  1.00 61.40 LIG 0.26  C 
ATOM     18 O    ALA E   8       4.316  22.345   7.971  1.00 66.21 LIG-0.27  OA
BRANCH 17 19
ATOM     19  CA  ALA E   8       6.446  23.200   8.679  1.00 67.03 LIG 0.40  C 
ATOM     20  N   ALA E   8       6.279  23.454  10.142  1.00 60.26 LIG 0.61  N 
ATOM     21  CB  ALA E   8       7.091  21.838   8.447  1.00 64.64 LIG 0.06  C 
ENDBRANCH 17 19
ENDBRANCH 13 15
ENDBRANCH 10 13
ENDBRANCH 7 9
ENDBRANCH 4 7
ENDBRANCH 1 3
BRANCH 1 22
ATOM     22  C   ALA E  11       1.529  21.082   1.112  1.00 81.78 LIG 0.24  C 
ATOM     23  N   ALA E  12       1.289  22.366   0.851  1.00 82.91 LIG-0.35  N 
ATOM     24 H    ALA E  12       1.626  23.026   1.288  1.00 82.91 LIG 0.16  HD
ATOM     25 O    ALA E  11       1.141  20.179   0.361  1.00 89.30 LIG-0.27  OA
BRANCH 23 26
ATOM     26  CA  ALA E  12       0.402  22.739  -0.242  1.00 61.10 LIG 0.17  C 
ATOM     27  CB  ALA E  12       0.880  22.124  -1.566  1.00 65.27 LIG 0.04  C 
BRANCH 26 28
ATOM     28  C   ALA E  12      -1.025  22.308   0.059  1.00 54.59 LIG 0.24  C 
ATOM     29  N   ALA E  13      -1.968  23.077  -0.487  1.00 64.78 LIG-0.35  N 
ATOM     30 H    ALA E  13      -1.801  23.730  -1.022  1.00 64.78 LIG 0.16  HD
ATOM     31 O    ALA E  12      -1.265  21.299   0.727  1.00 69.11 LIG-0.27  OA
BRANCH 29 32
ATOM     32  CA  ALA E  13      -3.382  22.873  -0.217  1.00 54.23 LIG 0.17  C 
ATOM     33  CB  ALA E  13      -3.773  21.432  -0.547  1.00 56.27 LIG 0.04  C 
BRANCH 32 34
ATOM     34  C   ALA E  13      -3.740  23.145   1.233  1.00 65.29 LIG 0.24  C 
ATOM     35  N   ALA E  14      -4.844  23.859   1.420  1.00 85.74 LIG-0.35  N 
ATOM     36 H    ALA E  14      -5.314  24.183   0.777  1.00 85.74 LIG 0.16  HD
ATOM     37 O    ALA E  13      -3.073  22.675   2.158  1.00 75.52 LIG-0.27  OA
BRANCH 35 38
ATOM     38  CA  ALA E  14      -5.366  24.161   2.741  1.00 94.46 LIG 0.16  C 
ATOM     39  CB  ALA E  14      -4.672  25.377   3.309  1.00106.12 LIG 0.04  C 
BRANCH 38 40
ATOM     40  C   ALA E  14      -6.873  24.385   2.676  1.00 99.07 LIG 0.22  C 
ATOM     41 O    ALA E  14      -7.500  24.164   1.640  1.00120.33 LIG-0.29  OA
ENDBRANCH 38 40
ENDBRANCH 35 38
ENDBRANCH 32 34
ENDBRANCH 29 32
ENDBRANCH 26 28
ENDBRANCH 23 26
ENDBRANCH 1 22
TORSDOF 13
ENDMDL
MODEL 56
USER: ADFR SOLUTION from run 6
USER: SCORE 4.718397 LL:  -2.543 LR:  -4.196 RR:   0.000 FEB:  -0.318
USER: RMSD 4.028759
USER: SEED 322608
USER: STATUS no improvement in best in 62 clusters for 5 generations
USER: GENES 15
USER: genes 0 Translation |==|  0.65610 0.34029 0.56638
USER: genes 1 Rotation |==|  0.61727 0.47825 0.44686 0.98265
USER: genes 2 Torsion [CB]-CA--N-[C] |==|  0.16228
USER: genes 3 Torsion [N]-C--CA-[N] |==|  0.30436
USER: genes 4 Torsion [C]-CA--N-[C] |==|  0.86718
USER: genes 5 Torsion [N]-C--CA-[N] |==|  0.97213
USER: genes 6 Torsion [C]-CA--N-[C] |==|  0.80018
USER: genes 7 Torsion [N]-C--CA-[N] |==|  0.27235
USER: genes 8 Torsion [N]-CA--C-[N] |==|  0.87256
USER: genes 9 Torsion [C]-N--CA-[CB] |==|  0.84965
USER: genes 10 Torsion [N]-CA--C-[N] |==|  0.42072
USER: genes 11 Torsion [C]-N--CA-[CB] |==|  0.16644
USER: genes 12 Torsion [N]-CA--C-[N] |==|  0.09086
USER: genes 13 Torsion [C]-N--CA-[C] |==|  0.57567
USER: genes 14 Torsion [N]-CA--C-[O] |==|  0.02962
ROOT
ATOM      1  CA  ALA E  11       2.292  20.754   2.389  1.00 85.35 LIG 0.17  C 
ATOM      2  CB  ALA E  11       1.370  20.878   3.603  1.00 80.46 LIG 0.04  C 
ENDROOT
BRANCH 1 3
ATOM      3  N   ALA E  11       3.456  21.618   2.552  1.00 87.15 LIG-0.35  N 
ATOM      4  C   ALA E  10       4.267  21.468   3.603  1.00 62.15 LIG 0.24  C 
ATOM      5 O    ALA E  10       4.198  20.494   4.354  1.00 65.72 LIG-0.27  OA
ATOM      6 H    ALA E  11       3.563  22.206   1.933  1.00 87.15 LIG 0.16  HD
BRANCH 4 7
ATOM      7  CA  ALA E  10       5.305  22.556   3.853  1.00 66.45 LIG 0.17  C 
ATOM      8  CB  ALA E  10       6.696  21.941   3.995  1.00 58.63 LIG 0.04  C 
BRANCH 7 9
ATOM      9  N   ALA E  10       4.993  23.346   5.035  1.00 75.43 LIG-0.35  N 
ATOM     10  C   ALA E   9       3.784  23.851   5.272  1.00 82.21 LIG 0.24  C 
ATOM     11 O    ALA E   9       2.829  23.725   4.496  1.00 73.75 LIG-0.27  OA
ATOM     12 H    ALA E  10       5.661  23.455   5.566  1.00 75.43 LIG 0.16  HD
BRANCH 10 13
ATOM     13  CA  ALA E   9       3.629  24.640   6.565  1.00 87.65 LIG 0.17  C 
ATOM     14  CB  ALA E   9       3.390  26.121   6.277  1.00 72.21 LIG 0.04  C 
BRANCH 13 15
ATOM     15  N   ALA E   9       4.835  24.440   7.358  1.00 84.24 LIG-0.35  N 
ATOM     16 H    ALA E   9       5.348  25.129   7.399  1.00 84.24 LIG 0.16  HD
ATOM     17  C   ALA E   8       5.104  23.289   7.960  1.00 61.40 LIG 0.26  C 
ATOM     18 O    ALA E   8       4.316  22.345   7.971  1.00 66.21 LIG-0.27  OA
BRANCH 17 19
ATOM     19  CA  ALA E   8       6.446  23.200   8.679  1.00 67.03 LIG 0.40  C 
ATOM     20  N   ALA E   8       6.279  23.454  10.142  1.00 60.26 LIG 0.61  N 
ATOM     21  CB  ALA E   8       7.091  21.838   8.447  1.00 64.64 LIG 0.06  C 
ENDBRANCH 17 19
ENDBRANCH 13 15
ENDBRANCH 10 13
ENDBRANCH 7 9
ENDBRANCH 4 7
ENDBRANCH 1 3
BRANCH 1 22
ATOM     22  C   ALA E  11       1.529  21.082   1.112  1.00 81.78 LIG 0.24  C 
ATOM     23  N   ALA E  12       1.289  22.366   0.851  1.00 82.91 LIG-0.35  N 
ATOM     24 H    ALA E  12       1.626  23.026   1.288  1.00 82.91 LIG 0.16  HD
ATOM     25 O    ALA E  11       1.141  20.179   0.361  1.00 89.30 LIG-0.27  OA
BRANCH 23 26
ATOM     26  CA  ALA E  12       0.402  22.739  -0.242  1.00 61.10 LIG 0.17  C 
ATOM     27  CB  ALA E  12       0.853  22.086  -1.558  1.00 65.27 LIG 0.04  C 
BRANCH 26 28
ATOM     28  C   ALA E  12      -1.033  22.350   0.079  1.00 54.59 LIG 0.24  C 
ATOM     29  N   ALA E  13      -1.961  23.116  -0.494  1.00 64.78 LIG-0.35  N 
ATOM     30 H    ALA E  13      -1.783  23.743  -1.055  1.00 64.78 LIG 0.16  HD
ATOM     31 O    ALA E  12      -1.291  21.373   0.787  1.00 69.11 LIG-0.27  OA
BRANCH 29 32
ATOM     32  CA  ALA E  13      -3.378  22.952  -0.213  1.00 54.23 LIG 0.17  C 
ATOM     33  CB  ALA E  13      -3.643  23.165   1.278  1.00 56.27 LIG 0.04  C 
BRANCH 32 34
ATOM     34  C   ALA E  13      -4.240  23.926  -0.995  1.00 65.29 LIG 0.24  C 
ATOM     35  N   ALA E  14      -3.780  24.251  -2.198  1.00 85.74 LIG-0.35  N 
ATOM     36 H    ALA E  14      -3.031  23.969  -2.511  1.00 85.74 LIG 0.16  HD
ATOM     37 O    ALA E  13      -5.320  24.326  -0.552  1.00 75.52 LIG-0.27  OA
BRANCH 35 38
ATOM     38  CA  ALA E  14      -4.507  25.122  -3.104  1.00 94.46 LIG 0.16  C 
ATOM     39  CB  ALA E  14      -4.205  26.569  -2.789  1.00106.12 LIG 0.04  C 
BRANCH 38 40
ATOM     40  C   ALA E  14      -4.146  24.802  -4.550  1.00 99.07 LIG 0.22  C 
ATOM     41 O    ALA E  14      -3.496  23.794  -4.829  1.00120.33 LIG-0.29  OA
ENDBRANCH 38 40
ENDBRANCH 35 38
ENDBRANCH 32 34
ENDBRANCH 29 32
ENDBRANCH 26 28
ENDBRANCH 23 26
ENDBRANCH 1 22
TORSDOF 13
ENDMDL
MODEL 57
USER: ADFR SOLUTION from run 6
USER: SCORE 5.651282 LL:  -2.512 LR:  -4.201 RR:   0.000 FEB:  -0.323
USER: RMSD 5.161113
USER: SEED 322608
USER: STATUS no improvement in best in 62 clusters for 5 generations
USER: GENES 15
USER: genes 0 Translation |==|  0.65610 0.34029 0.56638
USER: genes 1 Rotation |==|  0.61727 0.47825 0.44686 0.98265
USER: genes 2 Torsion [CB]-CA--N-[C] |==|  0.16228
USER: genes 3 Torsion [N]-C--CA-[N] |==|  0.30436
USER: genes 4 Torsion [C]-CA--N-[C] |==|  0.86718
USER: genes 5 Torsion [N]-C--CA-[N] |==|  0.97213
USER: genes 6 Torsion [C]-CA--N-[C] |==|  0.80018
USER: genes 7 Torsion [N]-C--CA-[N] |==|  0.27235
USER: genes 8 Torsion [N]-CA--C-[N] |==|  0.02533
USER: genes 9 Torsion [C]-N--CA-[CB] |==|  0.83995
USER: genes 10 Torsion [N]-CA--C-[N] |==|  0.36214
USER: genes 11 Torsion [C]-N--CA-[CB] |==|  0.84723
USER: genes 12 Torsion [N]-CA--C-[N] |==|  0.39378
USER: genes 13 Torsion [C]-N--CA-[C] |==|  0.74420
USER: genes 14 Torsion [N]-CA--C-[O] |==|  0.02962
ROOT
ATOM      1  CA  ALA E  11       2.292  20.754   2.389  1.00 85.35 LIG 0.17  C 
ATOM      2  CB  ALA E  11       1.370  20.878   3.603  1.00 80.46 LIG 0.04  C 
ENDROOT
BRANCH 1 3
ATOM      3  N   ALA E  11       3.456  21.618   2.552  1.00 87.15 LIG-0.35  N 
ATOM      4  C   ALA E  10       4.267  21.468   3.603  1.00 62.15 LIG 0.24  C 
ATOM      5 O    ALA E  10       4.198  20.494   4.354  1.00 65.72 LIG-0.27  OA
ATOM      6 H    ALA E  11       3.563  22.206   1.933  1.00 87.15 LIG 0.16  HD
BRANCH 4 7
ATOM      7  CA  ALA E  10       5.305  22.556   3.853  1.00 66.45 LIG 0.17  C 
ATOM      8  CB  ALA E  10       6.696  21.941   3.995  1.00 58.63 LIG 0.04  C 
BRANCH 7 9
ATOM      9  N   ALA E  10       4.993  23.346   5.035  1.00 75.43 LIG-0.35  N 
ATOM     10  C   ALA E   9       3.784  23.851   5.272  1.00 82.21 LIG 0.24  C 
ATOM     11 O    ALA E   9       2.829  23.725   4.496  1.00 73.75 LIG-0.27  OA
ATOM     12 H    ALA E  10       5.661  23.455   5.566  1.00 75.43 LIG 0.16  HD
BRANCH 10 13
ATOM     13  CA  ALA E   9       3.629  24.640   6.565  1.00 87.65 LIG 0.17  C 
ATOM     14  CB  ALA E   9       3.390  26.121   6.277  1.00 72.21 LIG 0.04  C 
BRANCH 13 15
ATOM     15  N   ALA E   9       4.835  24.440   7.358  1.00 84.24 LIG-0.35  N 
ATOM     16 H    ALA E   9       5.348  25.129   7.399  1.00 84.24 LIG 0.16  HD
ATOM     17  C   ALA E   8       5.104  23.289   7.960  1.00 61.40 LIG 0.26  C 
ATOM     18 O    ALA E   8       4.316  22.345   7.971  1.00 66.21 LIG-0.27  OA
BRANCH 17 19
ATOM     19  CA  ALA E   8       6.446  23.200   8.679  1.00 67.03 LIG 0.40  C 
ATOM     20  N   ALA E   8       6.279  23.454  10.142  1.00 60.26 LIG 0.61  N 
ATOM     21  CB  ALA E   8       7.091  21.838   8.447  1.00 64.64 LIG 0.06  C 
ENDBRANCH 17 19
ENDBRANCH 13 15
ENDBRANCH 10 13
ENDBRANCH 7 9
ENDBRANCH 4 7
ENDBRANCH 1 3
BRANCH 1 22
ATOM     22  C   ALA E  11       1.529  21.082   1.112  1.00 81.78 LIG 0.24  C 
ATOM     23  N   ALA E  12       2.095  21.932   0.257  1.00 82.91 LIG-0.35  N 
ATOM     24 H    ALA E  12       2.903  22.223   0.319  1.00 82.91 LIG 0.16  HD
ATOM     25 O    ALA E  11       0.419  20.580   0.895  1.00 89.30 LIG-0.27  OA
BRANCH 23 26
ATOM     26  CA  ALA E  12       1.342  22.439  -0.881  1.00 61.10 LIG 0.17  C 
ATOM     27  CB  ALA E  12       0.837  21.283  -1.758  1.00 65.27 LIG 0.04  C 
BRANCH 26 28
ATOM     28  C   ALA E  12       0.178  23.297  -0.411  1.00 54.59 LIG 0.24  C 
ATOM     29  N   ALA E  13       0.083  24.485  -1.010  1.00 64.78 LIG-0.35  N 
ATOM     30 H    ALA E  13       0.590  24.736  -1.657  1.00 64.78 LIG 0.16  HD
ATOM     31 O    ALA E  12      -0.624  22.887   0.432  1.00 69.11 LIG-0.27  OA
BRANCH 29 32
ATOM     32  CA  ALA E  13      -0.906  25.473  -0.609  1.00 54.23 LIG 0.17  C 
ATOM     33  CB  ALA E  13      -2.306  24.861  -0.661  1.00 56.27 LIG 0.04  C 
BRANCH 32 34
ATOM     34  C   ALA E  13      -0.666  25.997   0.795  1.00 65.29 LIG 0.24  C 
ATOM     35  N   ALA E  14      -0.902  27.293   0.965  1.00 85.74 LIG-0.35  N 
ATOM     36 H    ALA E  14      -1.139  27.819   0.328  1.00 85.74 LIG 0.16  HD
ATOM     37 O    ALA E  13      -0.334  25.243   1.713  1.00 75.52 LIG-0.27  OA
BRANCH 35 38
ATOM     38  CA  ALA E  14      -0.782  27.947   2.256  1.00 94.46 LIG 0.16  C 
ATOM     39  CB  ALA E  14      -0.278  29.361   2.077  1.00106.12 LIG 0.04  C 
BRANCH 38 40
ATOM     40  C   ALA E  14      -2.125  27.944   2.978  1.00 99.07 LIG 0.22  C 
ATOM     41 O    ALA E  14      -3.066  27.271   2.557  1.00120.33 LIG-0.29  OA
ENDBRANCH 38 40
ENDBRANCH 35 38
ENDBRANCH 32 34
ENDBRANCH 29 32
ENDBRANCH 26 28
ENDBRANCH 23 26
ENDBRANCH 1 22
TORSDOF 13
ENDMDL
MODEL 58
USER: ADFR SOLUTION from run 128
USER: SCORE 4.775037 LL:  -2.353 LR:  -4.190 RR:   0.000 FEB:  -0.312
USER: RMSD 4.975336
USER: SEED 127
USER: STATUS no improvement in best in 25 clusters for 5 generations
USER: GENES 15
USER: genes 0 Translation |==|  0.57249 0.22480 0.61354
USER: genes 1 Rotation |==|  0.75903 0.77968 0.57028 0.81582
USER: genes 2 Torsion [CB]-CA--N-[C] |==|  0.14615
USER: genes 3 Torsion [N]-C--CA-[N] |==|  0.43546
USER: genes 4 Torsion [C]-CA--N-[C] |==|  0.63054
USER: genes 5 Torsion [N]-C--CA-[N] |==|  0.17970
USER: genes 6 Torsion [C]-CA--N-[C] |==|  0.77612
USER: genes 7 Torsion [N]-C--CA-[N] |==|  0.96788
USER: genes 8 Torsion [N]-CA--C-[N] |==|  0.13288
USER: genes 9 Torsion [C]-N--CA-[CB] |==|  0.20746
USER: genes 10 Torsion [N]-CA--C-[N] |==|  0.54867
USER: genes 11 Torsion [C]-N--CA-[CB] |==|  0.17778
USER: genes 12 Torsion [N]-CA--C-[N] |==|  0.10952
USER: genes 13 Torsion [C]-N--CA-[C] |==|  0.76045
USER: genes 14 Torsion [N]-CA--C-[O] |==|  0.99152
ROOT
ATOM      1  CA  ALA E  11       0.411  18.675   3.238  1.00 85.35 LIG 0.17  C 
ATOM      2  CB  ALA E  11       1.291  17.648   3.952  1.00 80.46 LIG 0.04  C 
ENDROOT
BRANCH 1 3
ATOM      3  N   ALA E  11       0.809  20.027   3.616  1.00 87.15 LIG-0.35  N 
ATOM      4  C   ALA E  10       2.084  20.411   3.508  1.00 62.15 LIG 0.24  C 
ATOM      5 O    ALA E  10       2.925  19.740   2.908  1.00 65.72 LIG-0.27  OA
ATOM      6 H    ALA E  11       0.171  20.527   3.903  1.00 87.15 LIG 0.16  HD
BRANCH 4 7
ATOM      7  CA  ALA E  10       2.478  21.733   4.156  1.00 66.45 LIG 0.17  C 
ATOM      8  CB  ALA E  10       2.089  22.904   3.254  1.00 58.63 LIG 0.04  C 
BRANCH 7 9
ATOM      9  N   ALA E  10       3.902  21.791   4.451  1.00 75.43 LIG-0.35  N 
ATOM     10  C   ALA E   9       4.384  22.200   5.623  1.00 82.21 LIG 0.24  C 
ATOM     11 O    ALA E   9       3.671  22.598   6.551  1.00 73.75 LIG-0.27  OA
ATOM     12 H    ALA E  10       4.402  21.538   3.799  1.00 75.43 LIG 0.16  HD
BRANCH 10 13
ATOM     13  CA  ALA E   9       5.900  22.184   5.765  1.00 87.65 LIG 0.17  C 
ATOM     14  CB  ALA E   9       6.319  22.504   7.199  1.00 72.21 LIG 0.04  C 
BRANCH 13 15
ATOM     15  N   ALA E   9       6.448  23.150   4.822  1.00 84.24 LIG-0.35  N 
ATOM     16 H    ALA E   9       6.654  23.908   5.174  1.00 84.24 LIG 0.16  HD
ATOM     17  C   ALA E   8       6.610  22.871   3.536  1.00 61.40 LIG 0.26  C 
ATOM     18 O    ALA E   8       6.400  21.754   3.067  1.00 66.21 LIG-0.27  OA
BRANCH 17 19
ATOM     19  CA  ALA E   8       7.110  24.011   2.654  1.00 67.03 LIG 0.40  C 
ATOM     20  N   ALA E   8       7.053  25.310   3.389  1.00 60.26 LIG 0.61  N 
ATOM     21  CB  ALA E   8       8.529  23.735   2.172  1.00 64.64 LIG 0.06  C 
ENDBRANCH 17 19
ENDBRANCH 13 15
ENDBRANCH 10 13
ENDBRANCH 7 9
ENDBRANCH 4 7
ENDBRANCH 1 3
BRANCH 1 22
ATOM     22  C   ALA E  11      -1.058  18.418   3.549  1.00 81.78 LIG 0.24  C 
ATOM     23  N   ALA E  12      -1.939  19.339   3.162  1.00 82.91 LIG-0.35  N 
ATOM     24 H    ALA E  12      -1.755  20.011   2.656  1.00 82.91 LIG 0.16  HD
ATOM     25 O    ALA E  11      -1.405  17.394   4.150  1.00 89.30 LIG-0.27  OA
BRANCH 23 26
ATOM     26  CA  ALA E  12      -3.327  19.254   3.596  1.00 61.10 LIG 0.17  C 
ATOM     27  CB  ALA E  12      -3.463  19.666   5.070  1.00 65.27 LIG 0.04  C 
BRANCH 26 28
ATOM     28  C   ALA E  12      -4.214  20.123   2.718  1.00 54.59 LIG 0.24  C 
ATOM     29  N   ALA E  13      -5.409  20.405   3.237  1.00 64.78 LIG-0.35  N 
ATOM     30 H    ALA E  13      -5.651  20.177   4.030  1.00 64.78 LIG 0.16  HD
ATOM     31 O    ALA E  12      -3.820  20.552   1.630  1.00 69.11 LIG-0.27  OA
BRANCH 29 32
ATOM     32  CA  ALA E  13      -6.421  21.134   2.490  1.00 54.23 LIG 0.17  C 
ATOM     33  CB  ALA E  13      -6.856  20.323   1.270  1.00 56.27 LIG 0.04  C 
BRANCH 32 34
ATOM     34  C   ALA E  13      -7.652  21.436   3.327  1.00 65.29 LIG 0.24  C 
ATOM     35  N   ALA E  14      -7.411  21.781   4.586  1.00 85.74 LIG-0.35  N 
ATOM     36 H    ALA E  14      -6.623  21.800   4.930  1.00 85.74 LIG 0.16  HD
ATOM     37 O    ALA E  13      -8.783  21.417   2.834  1.00 75.52 LIG-0.27  OA
BRANCH 35 38
ATOM     38  CA  ALA E  14      -8.466  22.160   5.509  1.00 94.46 LIG 0.16  C 
ATOM     39  CB  ALA E  14      -8.064  21.824   6.926  1.00106.12 LIG 0.04  C 
BRANCH 38 40
ATOM     40  C   ALA E  14      -8.774  23.648   5.378  1.00 99.07 LIG 0.22  C 
ATOM     41 O    ALA E  14      -8.123  24.361   4.615  1.00120.33 LIG-0.29  OA
ENDBRANCH 38 40
ENDBRANCH 35 38
ENDBRANCH 32 34
ENDBRANCH 29 32
ENDBRANCH 26 28
ENDBRANCH 23 26
ENDBRANCH 1 22
TORSDOF 13
ENDMDL
MODEL 59
USER: ADFR SOLUTION from run 184
USER: SCORE 5.414137 LL:  -2.508 LR:  -4.182 RR:   0.000 FEB:  -0.304
USER: RMSD 5.499360
USER: SEED 183
USER: STATUS no improvement in best in 29 clusters for 5 generations
USER: GENES 15
USER: genes 0 Translation |==|  0.57962 0.24422 0.59117
USER: genes 1 Rotation |==|  0.75731 0.72193 0.58186 0.85755
USER: genes 2 Torsion [CB]-CA--N-[C] |==|  0.16617
USER: genes 3 Torsion [N]-C--CA-[N] |==|  0.45556
USER: genes 4 Torsion [C]-CA--N-[C] |==|  0.64267
USER: genes 5 Torsion [N]-C--CA-[N] |==|  0.16239
USER: genes 6 Torsion [C]-CA--N-[C] |==|  0.77725
USER: genes 7 Torsion [N]-C--CA-[N] |==|  0.34828
USER: genes 8 Torsion [N]-CA--C-[N] |==|  0.02230
USER: genes 9 Torsion [C]-N--CA-[CB] |==|  0.14484
USER: genes 10 Torsion [N]-CA--C-[N] |==|  0.09417
USER: genes 11 Torsion [C]-N--CA-[CB] |==|  0.83821
USER: genes 12 Torsion [N]-CA--C-[N] |==|  0.40611
USER: genes 13 Torsion [C]-N--CA-[C] |==|  0.18969
USER: genes 14 Torsion [N]-CA--C-[O] |==|  0.06858
ROOT
ATOM      1  CA  ALA E  11       0.572  19.025   2.835  1.00 85.35 LIG 0.17  C 
ATOM      2  CB  ALA E  11       1.114  17.945   3.774  1.00 80.46 LIG 0.04  C 
ENDROOT
BRANCH 1 3
ATOM      3  N   ALA E  11       1.008  20.343   3.281  1.00 87.15 LIG-0.35  N 
ATOM      4  C   ALA E  10       2.310  20.631   3.368  1.00 62.15 LIG 0.24  C 
ATOM      5 O    ALA E  10       3.179  19.898   2.894  1.00 65.72 LIG-0.27  OA
ATOM      6 H    ALA E  11       0.373  20.891   3.474  1.00 87.15 LIG 0.16  HD
BRANCH 4 7
ATOM      7  CA  ALA E  10       2.700  21.921   4.080  1.00 66.45 LIG 0.17  C 
ATOM      8  CB  ALA E  10       2.370  23.130   3.206  1.00 58.63 LIG 0.04  C 
BRANCH 7 9
ATOM      9  N   ALA E  10       4.111  21.941   4.435  1.00 75.43 LIG-0.35  N 
ATOM     10  C   ALA E   9       4.545  22.216   5.663  1.00 82.21 LIG 0.24  C 
ATOM     11 O    ALA E   9       3.796  22.512   6.601  1.00 73.75 LIG-0.27  OA
ATOM     12 H    ALA E  10       4.637  21.759   3.779  1.00 75.43 LIG 0.16  HD
BRANCH 10 13
ATOM     13  CA  ALA E   9       6.055  22.179   5.863  1.00 87.65 LIG 0.17  C 
ATOM     14  CB  ALA E   9       6.424  22.490   7.312  1.00 72.21 LIG 0.04  C 
BRANCH 13 15
ATOM     15  N   ALA E   9       6.652  23.140   4.943  1.00 84.24 LIG-0.35  N 
ATOM     16 H    ALA E   9       6.859  23.892   5.306  1.00 84.24 LIG 0.16  HD
ATOM     17  C   ALA E   8       6.851  22.864   3.662  1.00 61.40 LIG 0.26  C 
ATOM     18 O    ALA E   8       6.636  21.753   3.180  1.00 66.21 LIG-0.27  OA
BRANCH 17 19
ATOM     19  CA  ALA E   8       7.400  23.999   2.804  1.00 67.03 LIG 0.40  C 
ATOM     20  N   ALA E   8       8.644  23.571   2.097  1.00 60.26 LIG 0.61  N 
ATOM     21  CB  ALA E   8       6.354  24.468   1.799  1.00 64.64 LIG 0.06  C 
ENDBRANCH 17 19
ENDBRANCH 13 15
ENDBRANCH 10 13
ENDBRANCH 7 9
ENDBRANCH 4 7
ENDBRANCH 1 3
BRANCH 1 22
ATOM     22  C   ALA E  11      -0.947  18.938   2.753  1.00 81.78 LIG 0.24  C 
ATOM     23  N   ALA E  12      -1.638  20.064   2.923  1.00 82.91 LIG-0.35  N 
ATOM     24 H    ALA E  12      -1.291  20.850   2.965  1.00 82.91 LIG 0.16  HD
ATOM     25 O    ALA E  11      -1.506  17.853   2.548  1.00 89.30 LIG-0.27  OA
BRANCH 23 26
ATOM     26  CA  ALA E  12      -3.088  20.022   3.052  1.00 61.10 LIG 0.17  C 
ATOM     27  CB  ALA E  12      -3.510  19.023   4.139  1.00 65.27 LIG 0.04  C 
BRANCH 26 28
ATOM     28  C   ALA E  12      -3.636  21.406   3.361  1.00 54.59 LIG 0.24  C 
ATOM     29  N   ALA E  13      -2.967  22.411   2.795  1.00 64.78 LIG-0.35  N 
ATOM     30 H    ALA E  13      -2.316  22.301   2.244  1.00 64.78 LIG 0.16  HD
ATOM     31 O    ALA E  12      -4.646  21.559   4.052  1.00 69.11 LIG-0.27  OA
BRANCH 29 32
ATOM     32  CA  ALA E  13      -3.290  23.802   3.066  1.00 54.23 LIG 0.17  C 
ATOM     33  CB  ALA E  13      -4.747  24.082   2.698  1.00 56.27 LIG 0.04  C 
BRANCH 32 34
ATOM     34  C   ALA E  13      -3.087  24.169   4.525  1.00 65.29 LIG 0.24  C 
ATOM     35  N   ALA E  14      -2.674  25.412   4.745  1.00 85.74 LIG-0.35  N 
ATOM     36 H    ALA E  14      -2.493  25.970   4.117  1.00 85.74 LIG 0.16  HD
ATOM     37 O    ALA E  13      -3.354  23.374   5.430  1.00 75.52 LIG-0.27  OA
BRANCH 35 38
ATOM     38  CA  ALA E  14      -2.487  25.949   6.081  1.00 94.46 LIG 0.16  C 
ATOM     39  CB  ALA E  14      -3.750  25.774   6.893  1.00106.12 LIG 0.04  C 
BRANCH 38 40
ATOM     40  C   ALA E  14      -1.311  25.265   6.768  1.00 99.07 LIG 0.22  C 
ATOM     41 O    ALA E  14      -0.408  24.751   6.107  1.00120.33 LIG-0.29  OA
ENDBRANCH 38 40
ENDBRANCH 35 38
ENDBRANCH 32 34
ENDBRANCH 29 32
ENDBRANCH 26 28
ENDBRANCH 23 26
ENDBRANCH 1 22
TORSDOF 13
ENDMDL
MODEL 60
USER: ADFR SOLUTION from run 128
USER: SCORE 5.235358 LL:  -2.376 LR:  -4.184 RR:   0.000 FEB:  -0.307
USER: RMSD 3.809284
USER: SEED 127
USER: STATUS no improvement in best in 25 clusters for 5 generations
USER: GENES 15
USER: genes 0 Translation |==|  0.57249 0.22480 0.61354
USER: genes 1 Rotation |==|  0.75903 0.77968 0.57028 0.81582
USER: genes 2 Torsion [CB]-CA--N-[C] |==|  0.14615
USER: genes 3 Torsion [N]-C--CA-[N] |==|  0.43546
USER: genes 4 Torsion [C]-CA--N-[C] |==|  0.63054
USER: genes 5 Torsion [N]-C--CA-[N] |==|  0.17970
USER: genes 6 Torsion [C]-CA--N-[C] |==|  0.77612
USER: genes 7 Torsion [N]-C--CA-[N] |==|  0.96788
USER: genes 8 Torsion [N]-CA--C-[N] |==|  0.13288
USER: genes 9 Torsion [C]-N--CA-[CB] |==|  0.19444
USER: genes 10 Torsion [N]-CA--C-[N] |==|  0.08380
USER: genes 11 Torsion [C]-N--CA-[CB] |==|  0.51133
USER: genes 12 Torsion [N]-CA--C-[N] |==|  0.43478
USER: genes 13 Torsion [C]-N--CA-[C] |==|  0.75631
USER: genes 14 Torsion [N]-CA--C-[O] |==|  0.99088
ROOT
ATOM      1  CA  ALA E  11       0.411  18.675   3.238  1.00 85.35 LIG 0.17  C 
ATOM      2  CB  ALA E  11       1.291  17.648   3.952  1.00 80.46 LIG 0.04  C 
ENDROOT
BRANCH 1 3
ATOM      3  N   ALA E  11       0.809  20.027   3.616  1.00 87.15 LIG-0.35  N 
ATOM      4  C   ALA E  10       2.084  20.411   3.508  1.00 62.15 LIG 0.24  C 
ATOM      5 O    ALA E  10       2.925  19.740   2.908  1.00 65.72 LIG-0.27  OA
ATOM      6 H    ALA E  11       0.171  20.527   3.903  1.00 87.15 LIG 0.16  HD
BRANCH 4 7
ATOM      7  CA  ALA E  10       2.478  21.733   4.156  1.00 66.45 LIG 0.17  C 
ATOM      8  CB  ALA E  10       2.089  22.904   3.254  1.00 58.63 LIG 0.04  C 
BRANCH 7 9
ATOM      9  N   ALA E  10       3.902  21.791   4.451  1.00 75.43 LIG-0.35  N 
ATOM     10  C   ALA E   9       4.384  22.200   5.623  1.00 82.21 LIG 0.24  C 
ATOM     11 O    ALA E   9       3.671  22.598   6.551  1.00 73.75 LIG-0.27  OA
ATOM     12 H    ALA E  10       4.402  21.538   3.799  1.00 75.43 LIG 0.16  HD
BRANCH 10 13
ATOM     13  CA  ALA E   9       5.900  22.184   5.765  1.00 87.65 LIG 0.17  C 
ATOM     14  CB  ALA E   9       6.319  22.504   7.199  1.00 72.21 LIG 0.04  C 
BRANCH 13 15
ATOM     15  N   ALA E   9       6.448  23.150   4.822  1.00 84.24 LIG-0.35  N 
ATOM     16 H    ALA E   9       6.654  23.908   5.174  1.00 84.24 LIG 0.16  HD
ATOM     17  C   ALA E   8       6.610  22.871   3.536  1.00 61.40 LIG 0.26  C 
ATOM     18 O    ALA E   8       6.400  21.754   3.067  1.00 66.21 LIG-0.27  OA
BRANCH 17 19
ATOM     19  CA  ALA E   8       7.110  24.011   2.654  1.00 67.03 LIG 0.40  C 
ATOM     20  N   ALA E   8       7.053  25.310   3.389  1.00 60.26 LIG 0.61  N 
ATOM     21  CB  ALA E   8       8.529  23.735   2.172  1.00 64.64 LIG 0.06  C 
ENDBRANCH 17 19
ENDBRANCH 13 15
ENDBRANCH 10 13
ENDBRANCH 7 9
ENDBRANCH 4 7
ENDBRANCH 1 3
BRANCH 1 22
ATOM     22  C   ALA E  11      -1.058  18.418   3.549  1.00 81.78 LIG 0.24  C 
ATOM     23  N   ALA E  12      -1.939  19.339   3.162  1.00 82.91 LIG-0.35  N 
ATOM     24 H    ALA E  12      -1.755  20.011   2.656  1.00 82.91 LIG 0.16  HD
ATOM     25 O    ALA E  11      -1.405  17.394   4.150  1.00 89.30 LIG-0.27  OA
BRANCH 23 26
ATOM     26  CA  ALA E  12      -3.327  19.254   3.596  1.00 61.10 LIG 0.17  C 
ATOM     27  CB  ALA E  12      -3.447  19.553   5.098  1.00 65.27 LIG 0.04  C 
BRANCH 26 28
ATOM     28  C   ALA E  12      -4.196  20.209   2.793  1.00 54.59 LIG 0.24  C 
ATOM     29  N   ALA E  13      -3.775  20.434   1.548  1.00 64.78 LIG-0.35  N 
ATOM     30 H    ALA E  13      -3.106  20.030   1.189  1.00 64.78 LIG 0.16  HD
ATOM     31 O    ALA E  12      -5.226  20.695   3.267  1.00 69.11 LIG-0.27  OA
BRANCH 29 32
ATOM     32  CA  ALA E  13      -4.427  21.399   0.677  1.00 54.23 LIG 0.17  C 
ATOM     33  CB  ALA E  13      -3.788  21.362  -0.712  1.00 56.27 LIG 0.04  C 
BRANCH 32 34
ATOM     34  C   ALA E  13      -5.914  21.132   0.526  1.00 65.29 LIG 0.24  C 
ATOM     35  N   ALA E  14      -6.646  22.184   0.178  1.00 85.74 LIG-0.35  N 
ATOM     36 H    ALA E  14      -6.323  22.974   0.078  1.00 85.74 LIG 0.16  HD
ATOM     37 O    ALA E  13      -6.379  19.998   0.661  1.00 75.52 LIG-0.27  OA
BRANCH 35 38
ATOM     38  CA  ALA E  14      -8.074  22.095  -0.068  1.00 94.46 LIG 0.16  C 
ATOM     39  CB  ALA E  14      -8.744  23.405   0.280  1.00106.12 LIG 0.04  C 
BRANCH 38 40
ATOM     40  C   ALA E  14      -8.339  21.729  -1.524  1.00 99.07 LIG 0.22  C 
ATOM     41 O    ALA E  14      -7.410  21.611  -2.323  1.00120.33 LIG-0.29  OA
ENDBRANCH 38 40
ENDBRANCH 35 38
ENDBRANCH 32 34
ENDBRANCH 29 32
ENDBRANCH 26 28
ENDBRANCH 23 26
ENDBRANCH 1 22
TORSDOF 13
ENDMDL
MODEL 61
USER: ADFR SOLUTION from run 161
USER: SCORE 5.182888 LL:  -2.679 LR:  -4.175 RR:   0.000 FEB:  -0.297
USER: RMSD 4.229757
USER: SEED 160
USER: STATUS no improvement in best in 55 clusters for 5 generations
USER: GENES 15
USER: genes 0 Translation |==|  0.65167 0.35974 0.58556
USER: genes 1 Rotation |==|  0.80511 0.72839 0.47360 0.82257
USER: genes 2 Torsion [CB]-CA--N-[C] |==|  0.16397
USER: genes 3 Torsion [N]-C--CA-[N] |==|  0.11474
USER: genes 4 Torsion [C]-CA--N-[C] |==|  0.20458
USER: genes 5 Torsion [N]-C--CA-[N] |==|  0.14094
USER: genes 6 Torsion [C]-CA--N-[C] |==|  0.76236
USER: genes 7 Torsion [N]-C--CA-[N] |==|  0.60244
USER: genes 8 Torsion [N]-CA--C-[N] |==|  0.52638
USER: genes 9 Torsion [C]-N--CA-[CB] |==|  0.84592
USER: genes 10 Torsion [N]-CA--C-[N] |==|  0.38832
USER: genes 11 Torsion [C]-N--CA-[CB] |==|  0.83840
USER: genes 12 Torsion [N]-CA--C-[N] |==|  0.39890
USER: genes 13 Torsion [C]-N--CA-[C] |==|  0.76996
USER: genes 14 Torsion [N]-CA--C-[O] |==|  0.99617
ROOT
ATOM      1  CA  ALA E  11       2.193  21.104   2.734  1.00 85.35 LIG 0.17  C 
ATOM      2  CB  ALA E  11       2.595  19.839   3.495  1.00 80.46 LIG 0.04  C 
ENDROOT
BRANCH 1 3
ATOM      3  N   ALA E  11       3.181  22.155   2.949  1.00 87.15 LIG-0.35  N 
ATOM      4  C   ALA E  10       4.457  21.963   2.606  1.00 62.15 LIG 0.24  C 
ATOM      5 O    ALA E  10       4.819  21.004   1.923  1.00 65.72 LIG-0.27  OA
ATOM      6 H    ALA E  11       2.874  22.877   3.302  1.00 87.15 LIG 0.16  HD
BRANCH 4 7
ATOM      7  CA  ALA E  10       5.479  22.987   3.089  1.00 66.45 LIG 0.17  C 
ATOM      8  CB  ALA E  10       6.894  22.425   2.963  1.00 58.63 LIG 0.04  C 
BRANCH 7 9
ATOM      9  N   ALA E  10       5.232  23.394   4.465  1.00 75.43 LIG-0.35  N 
ATOM     10  C   ALA E   9       5.491  22.612   5.510  1.00 82.21 LIG 0.24  C 
ATOM     11 O    ALA E   9       5.930  21.461   5.408  1.00 73.75 LIG-0.27  OA
ATOM     12 H    ALA E  10       4.903  24.186   4.538  1.00 75.43 LIG 0.16  HD
BRANCH 10 13
ATOM     13  CA  ALA E   9       5.184  23.203   6.880  1.00 87.65 LIG 0.17  C 
ATOM     14  CB  ALA E   9       5.362  22.159   7.980  1.00 72.21 LIG 0.04  C 
BRANCH 13 15
ATOM     15  N   ALA E   9       3.822  23.720   6.850  1.00 84.24 LIG-0.35  N 
ATOM     16 H    ALA E   9       3.230  23.167   7.141  1.00 84.24 LIG 0.16  HD
ATOM     17  C   ALA E   8       3.535  24.937   6.411  1.00 61.40 LIG 0.26  C 
ATOM     18 O    ALA E   8       4.401  25.748   6.088  1.00 66.21 LIG-0.27  OA
BRANCH 17 19
ATOM     19  CA  ALA E   8       2.056  25.305   6.354  1.00 67.03 LIG 0.40  C 
ATOM     20  N   ALA E   8       1.768  26.150   5.157  1.00 60.26 LIG 0.61  N 
ATOM     21  CB  ALA E   8       1.190  24.049   6.338  1.00 64.64 LIG 0.06  C 
ENDBRANCH 17 19
ENDBRANCH 13 15
ENDBRANCH 10 13
ENDBRANCH 7 9
ENDBRANCH 4 7
ENDBRANCH 1 3
BRANCH 1 22
ATOM     22  C   ALA E  11       0.799  21.553   3.157  1.00 81.78 LIG 0.24  C 
ATOM     23  N   ALA E  12      -0.159  20.629   3.195  1.00 82.91 LIG-0.35  N 
ATOM     24 H    ALA E  12      -0.028  19.783   3.107  1.00 82.91 LIG 0.16  HD
ATOM     25 O    ALA E  11       0.578  22.737   3.439  1.00 89.30 LIG-0.27  OA
BRANCH 23 26
ATOM     26  CA  ALA E  12      -1.547  21.021   3.399  1.00 61.10 LIG 0.17  C 
ATOM     27  CB  ALA E  12      -1.697  21.848   4.685  1.00 65.27 LIG 0.04  C 
BRANCH 26 28
ATOM     28  C   ALA E  12      -2.062  21.803   2.201  1.00 54.59 LIG 0.24  C 
ATOM     29  N   ALA E  13      -3.311  21.511   1.839  1.00 64.78 LIG-0.35  N 
ATOM     30 H    ALA E  13      -3.823  20.975   2.276  1.00 64.78 LIG 0.16  HD
ATOM     31 O    ALA E  12      -1.371  22.663   1.649  1.00 69.11 LIG-0.27  OA
BRANCH 29 32
ATOM     32  CA  ALA E  13      -3.925  22.088   0.654  1.00 54.23 LIG 0.17  C 
ATOM     33  CB  ALA E  13      -3.920  23.614   0.753  1.00 56.27 LIG 0.04  C 
BRANCH 32 34
ATOM     34  C   ALA E  13      -3.206  21.689  -0.623  1.00 65.29 LIG 0.24  C 
ATOM     35  N   ALA E  14      -3.990  21.489  -1.676  1.00 85.74 LIG-0.35  N 
ATOM     36 H    ALA E  14      -4.848  21.540  -1.645  1.00 85.74 LIG 0.16  HD
ATOM     37 O    ALA E  13      -1.976  21.624  -0.672  1.00 75.52 LIG-0.27  OA
BRANCH 35 38
ATOM     38  CA  ALA E  14      -3.466  21.161  -2.990  1.00 94.46 LIG 0.16  C 
ATOM     39  CB  ALA E  14      -4.505  20.412  -3.792  1.00106.12 LIG 0.04  C 
BRANCH 38 40
ATOM     40  C   ALA E  14      -3.037  22.429  -3.720  1.00 99.07 LIG 0.22  C 
ATOM     41 O    ALA E  14      -3.181  23.535  -3.199  1.00120.33 LIG-0.29  OA
ENDBRANCH 38 40
ENDBRANCH 35 38
ENDBRANCH 32 34
ENDBRANCH 29 32
ENDBRANCH 26 28
ENDBRANCH 23 26
ENDBRANCH 1 22
TORSDOF 13
ENDMDL
MODEL 62
USER: ADFR SOLUTION from run 36
USER: SCORE 4.396698 LL:  -2.470 LR:  -4.141 RR:   0.000 FEB:  -0.263
USER: RMSD 3.734263
USER: SEED 35
USER: STATUS no improvement in best in 56 clusters for 5 generations
USER: GENES 15
USER: genes 0 Translation |==|  0.57295 0.25485 0.59147
USER: genes 1 Rotation |==|  0.76791 0.72876 0.57138 0.84756
USER: genes 2 Torsion [CB]-CA--N-[C] |==|  0.13817
USER: genes 3 Torsion [N]-C--CA-[N] |==|  0.48282
USER: genes 4 Torsion [C]-CA--N-[C] |==|  0.64444
USER: genes 5 Torsion [N]-C--CA-[N] |==|  0.15634
USER: genes 6 Torsion [C]-CA--N-[C] |==|  0.78290
USER: genes 7 Torsion [N]-C--CA-[N] |==|  0.28898
USER: genes 8 Torsion [N]-CA--C-[N] |==|  0.23575
USER: genes 9 Torsion [C]-N--CA-[CB] |==|  0.19337
USER: genes 10 Torsion [N]-CA--C-[N] |==|  0.10926
USER: genes 11 Torsion [C]-N--CA-[CB] |==|  0.76194
USER: genes 12 Torsion [N]-CA--C-[N] |==|  0.20220
USER: genes 13 Torsion [C]-N--CA-[C] |==|  0.18587
USER: genes 14 Torsion [N]-CA--C-[O] |==|  0.11339
ROOT
ATOM      1  CA  ALA E  11       0.421  19.216   2.840  1.00 85.35 LIG 0.17  C 
ATOM      2  CB  ALA E  11       0.992  18.096   3.712  1.00 80.46 LIG 0.04  C 
ENDROOT
BRANCH 1 3
ATOM      3  N   ALA E  11       0.924  20.509   3.292  1.00 87.15 LIG-0.35  N 
ATOM      4  C   ALA E  10       2.232  20.693   3.491  1.00 62.15 LIG 0.24  C 
ATOM      5 O    ALA E  10       3.076  19.877   3.119  1.00 65.72 LIG-0.27  OA
ATOM      6 H    ALA E  11       0.323  21.112   3.411  1.00 87.15 LIG 0.16  HD
BRANCH 4 7
ATOM      7  CA  ALA E  10       2.663  21.970   4.204  1.00 66.45 LIG 0.17  C 
ATOM      8  CB  ALA E  10       2.291  23.195   3.370  1.00 58.63 LIG 0.04  C 
BRANCH 7 9
ATOM      9  N   ALA E  10       4.091  21.981   4.486  1.00 75.43 LIG-0.35  N 
ATOM     10  C   ALA E   9       4.589  22.222   5.696  1.00 82.21 LIG 0.24  C 
ATOM     11 O    ALA E   9       3.890  22.491   6.680  1.00 73.75 LIG-0.27  OA
ATOM     12 H    ALA E  10       4.581  21.818   3.798  1.00 75.43 LIG 0.16  HD
BRANCH 10 13
ATOM     13  CA  ALA E   9       6.107  22.181   5.815  1.00 87.65 LIG 0.17  C 
ATOM     14  CB  ALA E   9       6.554  22.504   7.239  1.00 72.21 LIG 0.04  C 
BRANCH 13 15
ATOM     15  N   ALA E   9       6.657  23.130   4.855  1.00 84.24 LIG-0.35  N 
ATOM     16 H    ALA E   9       6.912  23.874   5.203  1.00 84.24 LIG 0.16  HD
ATOM     17  C   ALA E   8       6.750  22.856   3.562  1.00 61.40 LIG 0.26  C 
ATOM     18 O    ALA E   8       6.469  21.754   3.094  1.00 66.21 LIG-0.27  OA
BRANCH 17 19
ATOM     19  CA  ALA E   8       7.262  23.981   2.667  1.00 67.03 LIG 0.40  C 
ATOM     20  N   ALA E   8       8.681  23.734   2.271  1.00 60.26 LIG 0.61  N 
ATOM     21  CB  ALA E   8       6.383  24.127   1.430  1.00 64.64 LIG 0.06  C 
ENDBRANCH 17 19
ENDBRANCH 13 15
ENDBRANCH 10 13
ENDBRANCH 7 9
ENDBRANCH 4 7
ENDBRANCH 1 3
BRANCH 1 22
ATOM     22  C   ALA E  11      -1.102  19.173   2.857  1.00 81.78 LIG 0.24  C 
ATOM     23  N   ALA E  12      -1.742  19.651   1.791  1.00 82.91 LIG-0.35  N 
ATOM     24 H    ALA E  12      -1.362  19.879   1.053  1.00 82.91 LIG 0.16  HD
ATOM     25 O    ALA E  11      -1.708  18.720   3.835  1.00 89.30 LIG-0.27  OA
BRANCH 23 26
ATOM     26  CA  ALA E  12      -3.188  19.820   1.819  1.00 61.10 LIG 0.17  C 
ATOM     27  CB  ALA E  12      -3.584  20.962   2.767  1.00 65.27 LIG 0.04  C 
BRANCH 26 28
ATOM     28  C   ALA E  12      -3.722  20.082   0.420  1.00 54.59 LIG 0.24  C 
ATOM     29  N   ALA E  13      -3.139  19.367  -0.543  1.00 64.78 LIG-0.35  N 
ATOM     30 H    ALA E  13      -2.552  18.756  -0.395  1.00 64.78 LIG 0.16  HD
ATOM     31 O    ALA E  12      -4.650  20.870   0.223  1.00 69.11 LIG-0.27  OA
BRANCH 29 32
ATOM     32  CA  ALA E  13      -3.453  19.566  -1.948  1.00 54.23 LIG 0.17  C 
ATOM     33  CB  ALA E  13      -4.679  18.736  -2.332  1.00 56.27 LIG 0.04  C 
BRANCH 32 34
ATOM     34  C   ALA E  13      -3.739  21.020  -2.278  1.00 65.29 LIG 0.24  C 
ATOM     35  N   ALA E  14      -2.678  21.819  -2.286  1.00 85.74 LIG-0.35  N 
ATOM     36 H    ALA E  14      -1.885  21.556  -2.085  1.00 85.74 LIG 0.16  HD
ATOM     37 O    ALA E  13      -4.875  21.399  -2.575  1.00 75.52 LIG-0.27  OA
BRANCH 35 38
ATOM     38  CA  ALA E  14      -2.761  23.224  -2.640  1.00 94.46 LIG 0.16  C 
ATOM     39  CB  ALA E  14      -3.389  23.381  -4.006  1.00106.12 LIG 0.04  C 
BRANCH 38 40
ATOM     40  C   ALA E  14      -3.562  23.988  -1.592  1.00 99.07 LIG 0.22  C 
ATOM     41 O    ALA E  14      -3.419  23.749  -0.392  1.00120.33 LIG-0.29  OA
ENDBRANCH 38 40
ENDBRANCH 35 38
ENDBRANCH 32 34
ENDBRANCH 29 32
ENDBRANCH 26 28
ENDBRANCH 23 26
ENDBRANCH 1 22
TORSDOF 13
ENDMDL
MODEL 63
USER: ADFR SOLUTION from run 192
USER: SCORE 4.141051 LL:  -2.274 LR:  -4.089 RR:   0.000 FEB:  -0.212
USER: RMSD 3.772029
USER: SEED 191
USER: STATUS no improvement in best in 42 clusters for 5 generations
USER: GENES 15
USER: genes 0 Translation |==|  0.52227 0.37370 0.67889
USER: genes 1 Rotation |==|  0.48390 0.37116 0.55545 0.97965
USER: genes 2 Torsion [CB]-CA--N-[C] |==|  0.48282
USER: genes 3 Torsion [N]-C--CA-[N] |==|  0.44319
USER: genes 4 Torsion [C]-CA--N-[C] |==|  0.80301
USER: genes 5 Torsion [N]-C--CA-[N] |==|  0.44066
USER: genes 6 Torsion [C]-CA--N-[C] |==|  0.85983
USER: genes 7 Torsion [N]-C--CA-[N] |==|  0.07744
USER: genes 8 Torsion [N]-CA--C-[N] |==|  0.84620
USER: genes 9 Torsion [C]-N--CA-[CB] |==|  0.16760
USER: genes 10 Torsion [N]-CA--C-[N] |==|  0.08838
USER: genes 11 Torsion [C]-N--CA-[CB] |==|  0.83885
USER: genes 12 Torsion [N]-CA--C-[N] |==|  0.40550
USER: genes 13 Torsion [C]-N--CA-[C] |==|  0.75460
USER: genes 14 Torsion [N]-CA--C-[O] |==|  0.03992
ROOT
ATOM      1  CA  ALA E  11      -0.719  21.356   4.414  1.00 85.35 LIG 0.17  C 
ATOM      2  CB  ALA E  11      -2.136  21.643   4.915  1.00 80.46 LIG 0.04  C 
ENDROOT
BRANCH 1 3
ATOM      3  N   ALA E  11       0.070  22.583   4.409  1.00 87.15 LIG-0.35  N 
ATOM      4  C   ALA E  10       1.375  22.546   4.126  1.00 62.15 LIG 0.24  C 
ATOM      5 O    ALA E  10       1.921  21.543   3.665  1.00 65.72 LIG-0.27  OA
ATOM      6 H    ALA E  11      -0.368  23.298   4.599  1.00 87.15 LIG 0.16  HD
BRANCH 4 7
ATOM      7  CA  ALA E  10       2.188  23.808   4.389  1.00 66.45 LIG 0.17  C 
ATOM      8  CB  ALA E  10       1.953  24.832   3.280  1.00 58.63 LIG 0.04  C 
BRANCH 7 9
ATOM      9  N   ALA E  10       3.611  23.525   4.505  1.00 75.43 LIG-0.35  N 
ATOM     10  C   ALA E   9       4.141  22.885   5.545  1.00 82.21 LIG 0.24  C 
ATOM     11 O    ALA E   9       3.482  22.505   6.519  1.00 73.75 LIG-0.27  OA
ATOM     12 H    ALA E  10       4.076  23.809   3.839  1.00 75.43 LIG 0.16  HD
BRANCH 10 13
ATOM     13  CA  ALA E   9       5.646  22.660   5.496  1.00 87.65 LIG 0.17  C 
ATOM     14  CB  ALA E   9       5.996  21.483   4.588  1.00 72.21 LIG 0.04  C 
BRANCH 13 15
ATOM     15  N   ALA E   9       6.110  22.438   6.860  1.00 84.24 LIG-0.35  N 
ATOM     16 H    ALA E   9       6.599  21.736   6.955  1.00 84.24 LIG 0.16  HD
ATOM     17  C   ALA E   8       5.798  23.254   7.856  1.00 61.40 LIG 0.26  C 
ATOM     18 O    ALA E   8       5.178  24.302   7.687  1.00 66.21 LIG-0.27  OA
BRANCH 17 19
ATOM     19  CA  ALA E   8       6.280  22.843   9.244  1.00 67.03 LIG 0.40  C 
ATOM     20  N   ALA E   8       7.521  22.017   9.147  1.00 60.26 LIG 0.61  N 
ATOM     21  CB  ALA E   8       6.526  24.071  10.113  1.00 64.64 LIG 0.06  C 
ENDBRANCH 17 19
ENDBRANCH 13 15
ENDBRANCH 10 13
ENDBRANCH 7 9
ENDBRANCH 4 7
ENDBRANCH 1 3
BRANCH 1 22
ATOM     22  C   ALA E  11      -0.767  20.718   3.031  1.00 81.78 LIG 0.24  C 
ATOM     23  N   ALA E  12      -1.204  21.469   2.022  1.00 82.91 LIG-0.35  N 
ATOM     24 H    ALA E  12      -1.355  22.315   2.071  1.00 82.91 LIG 0.16  HD
ATOM     25 O    ALA E  11      -0.423  19.541   2.868  1.00 89.30 LIG-0.27  OA
BRANCH 23 26
ATOM     26  CA  ALA E  12      -1.461  20.871   0.719  1.00 61.10 LIG 0.17  C 
ATOM     27  CB  ALA E  12      -2.539  19.781   0.823  1.00 65.27 LIG 0.04  C 
BRANCH 26 28
ATOM     28  C   ALA E  12      -1.875  21.935  -0.284  1.00 54.59 LIG 0.24  C 
ATOM     29  N   ALA E  13      -1.327  23.134  -0.085  1.00 64.78 LIG-0.35  N 
ATOM     30 H    ALA E  13      -0.735  23.295   0.518  1.00 64.78 LIG 0.16  HD
ATOM     31 O    ALA E  12      -2.631  21.673  -1.224  1.00 69.11 LIG-0.27  OA
BRANCH 29 32
ATOM     32  CA  ALA E  13      -1.693  24.291  -0.886  1.00 54.23 LIG 0.17  C 
ATOM     33  CB  ALA E  13      -1.429  24.007  -2.365  1.00 56.27 LIG 0.04  C 
BRANCH 32 34
ATOM     34  C   ALA E  13      -3.154  24.669  -0.725  1.00 65.29 LIG 0.24  C 
ATOM     35  N   ALA E  14      -3.414  25.970  -0.790  1.00 85.74 LIG-0.35  N 
ATOM     36 H    ALA E  14      -2.806  26.571  -0.879  1.00 85.74 LIG 0.16  HD
ATOM     37 O    ALA E  13      -4.030  23.808  -0.606  1.00 75.52 LIG-0.27  OA
BRANCH 35 38
ATOM     38  CA  ALA E  14      -4.763  26.502  -0.717  1.00 94.46 LIG 0.16  C 
ATOM     39  CB  ALA E  14      -4.748  27.873  -0.081  1.00106.12 LIG 0.04  C 
BRANCH 38 40
ATOM     40  C   ALA E  14      -5.384  26.564  -2.108  1.00 99.07 LIG 0.22  C 
ATOM     41 O    ALA E  14      -4.875  25.962  -3.053  1.00120.33 LIG-0.29  OA
ENDBRANCH 38 40
ENDBRANCH 35 38
ENDBRANCH 32 34
ENDBRANCH 29 32
ENDBRANCH 26 28
ENDBRANCH 23 26
ENDBRANCH 1 22
TORSDOF 13
ENDMDL
MODEL 64
USER: ADFR SOLUTION from run 136
USER: SCORE 4.889246 LL:  -2.765 LR:  -4.090 RR:   0.000 FEB:  -0.212
USER: RMSD 5.422764
USER: SEED 135
USER: STATUS no improvement in best in 29 clusters for 5 generations
USER: GENES 15
USER: genes 0 Translation |==|  0.67564 0.39650 0.57967
USER: genes 1 Rotation |==|  0.76698 0.49110 0.53981 0.92078
USER: genes 2 Torsion [CB]-CA--N-[C] |==|  0.17662
USER: genes 3 Torsion [N]-C--CA-[N] |==|  0.09230
USER: genes 4 Torsion [C]-CA--N-[C] |==|  0.72854
USER: genes 5 Torsion [N]-C--CA-[N] |==|  0.46347
USER: genes 6 Torsion [C]-CA--N-[C] |==|  0.73377
USER: genes 7 Torsion [N]-C--CA-[N] |==|  0.40343
USER: genes 8 Torsion [N]-CA--C-[N] |==|  0.66517
USER: genes 9 Torsion [C]-N--CA-[CB] |==|  0.19175
USER: genes 10 Torsion [N]-CA--C-[N] |==|  0.08942
USER: genes 11 Torsion [C]-N--CA-[CB] |==|  0.16252
USER: genes 12 Torsion [N]-CA--C-[N] |==|  0.10909
USER: genes 13 Torsion [C]-N--CA-[C] |==|  0.16752
USER: genes 14 Torsion [N]-CA--C-[O] |==|  0.09548
ROOT
ATOM      1  CA  ALA E  11       2.732  21.766   2.628  1.00 85.35 LIG 0.17  C 
ATOM      2  CB  ALA E  11       1.846  20.840   3.464  1.00 80.46 LIG 0.04  C 
ENDROOT
BRANCH 1 3
ATOM      3  N   ALA E  11       3.482  22.664   3.499  1.00 87.15 LIG-0.35  N 
ATOM      4  C   ALA E  10       4.378  22.176   4.362  1.00 62.15 LIG 0.24  C 
ATOM      5 O    ALA E  10       4.757  21.004   4.326  1.00 65.72 LIG-0.27  OA
ATOM      6 H    ALA E  11       3.300  23.499   3.406  1.00 87.15 LIG 0.16  HD
BRANCH 4 7
ATOM      7  CA  ALA E  10       4.934  23.129   5.414  1.00 66.45 LIG 0.17  C 
ATOM      8  CB  ALA E  10       5.432  22.347   6.628  1.00 58.63 LIG 0.04  C 
BRANCH 7 9
ATOM      9  N   ALA E  10       3.946  24.113   5.833  1.00 75.43 LIG-0.35  N 
ATOM     10  C   ALA E   9       3.896  25.347   5.337  1.00 82.21 LIG 0.24  C 
ATOM     11 O    ALA E   9       4.700  25.779   4.503  1.00 73.75 LIG-0.27  OA
ATOM     12 H    ALA E  10       3.400  23.823   6.431  1.00 75.43 LIG 0.16  HD
BRANCH 10 13
ATOM     13  CA  ALA E   9       2.789  26.242   5.878  1.00 87.65 LIG 0.17  C 
ATOM     14  CB  ALA E   9       1.421  25.787   5.374  1.00 72.21 LIG 0.04  C 
BRANCH 13 15
ATOM     15  N   ALA E   9       3.080  27.610   5.470  1.00 84.24 LIG-0.35  N 
ATOM     16 H    ALA E   9       2.807  27.807   4.678  1.00 84.24 LIG 0.16  HD
ATOM     17  C   ALA E   8       3.711  28.467   6.262  1.00 61.40 LIG 0.26  C 
ATOM     18 O    ALA E   8       4.010  28.200   7.424  1.00 66.21 LIG-0.27  OA
BRANCH 17 19
ATOM     19  CA  ALA E   8       4.025  29.834   5.664  1.00 67.03 LIG 0.40  C 
ATOM     20  N   ALA E   8       3.925  30.900   6.705  1.00 60.26 LIG 0.61  N 
ATOM     21  CB  ALA E   8       5.412  29.839   5.031  1.00 64.64 LIG 0.06  C 
ENDBRANCH 17 19
ENDBRANCH 13 15
ENDBRANCH 10 13
ENDBRANCH 7 9
ENDBRANCH 4 7
ENDBRANCH 1 3
BRANCH 1 22
ATOM     22  C   ALA E  11       1.886  22.540   1.624  1.00 81.78 LIG 0.24  C 
ATOM     23  N   ALA E  12       0.569  22.343   1.649  1.00 82.91 LIG-0.35  N 
ATOM     24 H    ALA E  12       0.151  21.900   2.257  1.00 82.91 LIG 0.16  HD
ATOM     25 O    ALA E  11       2.417  23.309   0.814  1.00 89.30 LIG-0.27  OA
BRANCH 23 26
ATOM     26  CA  ALA E  12      -0.275  22.896   0.598  1.00 61.10 LIG 0.17  C 
ATOM     27  CB  ALA E  12      -0.021  22.180  -0.737  1.00 65.27 LIG 0.04  C 
BRANCH 26 28
ATOM     28  C   ALA E  12      -1.742  22.796   0.984  1.00 54.59 LIG 0.24  C 
ATOM     29  N   ALA E  13      -1.984  22.900   2.291  1.00 64.78 LIG-0.35  N 
ATOM     30 H    ALA E  13      -1.378  23.075   2.877  1.00 64.78 LIG 0.16  HD
ATOM     31 O    ALA E  12      -2.624  22.668   0.132  1.00 69.11 LIG-0.27  OA
BRANCH 29 32
ATOM     32  CA  ALA E  13      -3.316  22.723   2.845  1.00 54.23 LIG 0.17  C 
ATOM     33  CB  ALA E  13      -3.850  21.335   2.491  1.00 56.27 LIG 0.04  C 
BRANCH 32 34
ATOM     34  C   ALA E  13      -3.339  22.872   4.356  1.00 65.29 LIG 0.24  C 
ATOM     35  N   ALA E  14      -2.562  23.833   4.843  1.00 85.74 LIG-0.35  N 
ATOM     36 H    ALA E  14      -2.048  24.319   4.356  1.00 85.74 LIG 0.16  HD
ATOM     37 O    ALA E  13      -4.082  22.181   5.058  1.00 75.52 LIG-0.27  OA
BRANCH 35 38
ATOM     38  CA  ALA E  14      -2.508  24.153   6.258  1.00 94.46 LIG 0.16  C 
ATOM     39  CB  ALA E  14      -3.864  24.617   6.738  1.00106.12 LIG 0.04  C 
BRANCH 38 40
ATOM     40  C   ALA E  14      -2.044  22.941   7.058  1.00 99.07 LIG 0.22  C 
ATOM     41 O    ALA E  14      -1.221  22.154   6.590  1.00120.33 LIG-0.29  OA
ENDBRANCH 38 40
ENDBRANCH 35 38
ENDBRANCH 32 34
ENDBRANCH 29 32
ENDBRANCH 26 28
ENDBRANCH 23 26
ENDBRANCH 1 22
TORSDOF 13
ENDMDL
MODEL 65
USER: ADFR SOLUTION from run 169
USER: SCORE 3.983502 LL:  -2.490 LR:  -4.069 RR:   0.000 FEB:  -0.191
USER: RMSD 3.555256
USER: SEED 168
USER: STATUS no improvement in best in 106 clusters for 5 generations
USER: GENES 15
USER: genes 0 Translation |==|  0.62466 0.40276 0.63543
USER: genes 1 Rotation |==|  0.39124 0.35477 0.40664 0.95647
USER: genes 2 Torsion [CB]-CA--N-[C] |==|  0.45170
USER: genes 3 Torsion [N]-C--CA-[N] |==|  0.13076
USER: genes 4 Torsion [C]-CA--N-[C] |==|  0.13029
USER: genes 5 Torsion [N]-C--CA-[N] |==|  0.30892
USER: genes 6 Torsion [C]-CA--N-[C] |==|  0.69748
USER: genes 7 Torsion [N]-C--CA-[N] |==|  0.56433
USER: genes 8 Torsion [N]-CA--C-[N] |==|  0.63913
USER: genes 9 Torsion [C]-N--CA-[CB] |==|  0.17488
USER: genes 10 Torsion [N]-CA--C-[N] |==|  0.10352
USER: genes 11 Torsion [C]-N--CA-[CB] |==|  0.84435
USER: genes 12 Torsion [N]-CA--C-[N] |==|  0.39290
USER: genes 13 Torsion [C]-N--CA-[C] |==|  0.74963
USER: genes 14 Torsion [N]-CA--C-[O] |==|  0.04042
ROOT
ATOM      1  CA  ALA E  11       1.585  21.879   3.632  1.00 85.35 LIG 0.17  C 
ATOM      2  CB  ALA E  11       0.630  23.064   3.791  1.00 80.46 LIG 0.04  C 
ENDROOT
BRANCH 1 3
ATOM      3  N   ALA E  11       2.967  22.346   3.619  1.00 87.15 LIG-0.35  N 
ATOM      4  C   ALA E  10       3.971  21.493   3.837  1.00 62.15 LIG 0.24  C 
ATOM      5 O    ALA E  10       3.806  20.272   3.853  1.00 65.72 LIG-0.27  OA
ATOM      6 H    ALA E  11       3.065  23.186   3.464  1.00 87.15 LIG 0.16  HD
BRANCH 4 7
ATOM      7  CA  ALA E  10       5.358  22.082   4.066  1.00 66.45 LIG 0.17  C 
ATOM      8  CB  ALA E  10       6.322  20.998   4.548  1.00 58.63 LIG 0.04  C 
BRANCH 7 9
ATOM      9  N   ALA E  10       5.333  23.178   5.022  1.00 75.43 LIG-0.35  N 
ATOM     10  C   ALA E   9       4.689  23.111   6.186  1.00 82.21 LIG 0.24  C 
ATOM     11 O    ALA E   9       4.030  22.129   6.544  1.00 73.75 LIG-0.27  OA
ATOM     12 H    ALA E  10       5.771  23.873   4.765  1.00 75.43 LIG 0.16  HD
BRANCH 10 13
ATOM     13  CA  ALA E   9       4.778  24.347   7.072  1.00 87.65 LIG 0.17  C 
ATOM     14  CB  ALA E   9       5.275  23.984   8.469  1.00 72.21 LIG 0.04  C 
BRANCH 13 15
ATOM     15  N   ALA E   9       3.458  24.961   7.118  1.00 84.24 LIG-0.35  N 
ATOM     16 H    ALA E   9       2.877  24.514   7.569  1.00 84.24 LIG 0.16  HD
ATOM     17  C   ALA E   8       3.188  26.109   6.512  1.00 61.40 LIG 0.26  C 
ATOM     18 O    ALA E   8       4.051  26.782   5.951  1.00 66.21 LIG-0.27  OA
BRANCH 17 19
ATOM     19  CA  ALA E   8       1.739  26.582   6.572  1.00 67.03 LIG 0.40  C 
ATOM     20  N   ALA E   8       1.444  27.519   5.446  1.00 60.26 LIG 0.61  N 
ATOM     21  CB  ALA E   8       0.784  25.394   6.538  1.00 64.64 LIG 0.06  C 
ENDBRANCH 17 19
ENDBRANCH 13 15
ENDBRANCH 10 13
ENDBRANCH 7 9
ENDBRANCH 4 7
ENDBRANCH 1 3
BRANCH 1 22
ATOM     22  C   ALA E  11       1.248  21.096   2.369  1.00 81.78 LIG 0.24  C 
ATOM     23  N   ALA E  12       0.143  21.439   1.709  1.00 82.91 LIG-0.35  N 
ATOM     24 H    ALA E  12      -0.332  22.136   1.878  1.00 82.91 LIG 0.16  HD
ATOM     25 O    ALA E  11       1.975  20.170   1.989  1.00 89.30 LIG-0.27  OA
BRANCH 23 26
ATOM     26  CA  ALA E  12      -0.342  20.613   0.612  1.00 61.10 LIG 0.17  C 
ATOM     27  CB  ALA E  12      -0.726  19.213   1.112  1.00 65.27 LIG 0.04  C 
BRANCH 26 28
ATOM     28  C   ALA E  12      -1.526  21.277  -0.072  1.00 54.59 LIG 0.24  C 
ATOM     29  N   ALA E  13      -1.443  22.604  -0.170  1.00 64.78 LIG-0.35  N 
ATOM     30 H    ALA E  13      -0.754  23.058   0.069  1.00 64.78 LIG 0.16  HD
ATOM     31 O    ALA E  12      -2.462  20.613  -0.527  1.00 69.11 LIG-0.27  OA
BRANCH 29 32
ATOM     32  CA  ALA E  13      -2.532  23.408  -0.701  1.00 54.23 LIG 0.17  C 
ATOM     33  CB  ALA E  13      -2.905  22.922  -2.102  1.00 56.27 LIG 0.04  C 
BRANCH 32 34
ATOM     34  C   ALA E  13      -3.774  23.349   0.171  1.00 65.29 LIG 0.24  C 
ATOM     35  N   ALA E  14      -4.436  24.494   0.293  1.00 85.74 LIG-0.35  N 
ATOM     36 H    ALA E  14      -4.173  25.233  -0.059  1.00 85.74 LIG 0.16  HD
ATOM     37 O    ALA E  13      -4.157  22.289   0.671  1.00 75.52 LIG-0.27  OA
BRANCH 35 38
ATOM     38  CA  ALA E  14      -5.676  24.604   1.039  1.00 94.46 LIG 0.16  C 
ATOM     39  CB  ALA E  14      -5.781  25.972   1.674  1.00106.12 LIG 0.04  C 
BRANCH 38 40
ATOM     40  C   ALA E  14      -6.869  24.346   0.125  1.00 99.07 LIG 0.22  C 
ATOM     41 O    ALA E  14      -6.715  23.833  -0.983  1.00120.33 LIG-0.29  OA
ENDBRANCH 38 40
ENDBRANCH 35 38
ENDBRANCH 32 34
ENDBRANCH 29 32
ENDBRANCH 26 28
ENDBRANCH 23 26
ENDBRANCH 1 22
TORSDOF 13
ENDMDL
MODEL 66
USER: ADFR SOLUTION from run 86
USER: SCORE 5.843361 LL:  -2.991 LR:  -4.066 RR:   0.000 FEB:  -0.188
USER: RMSD 5.206613
USER: SEED 85
USER: STATUS no improvement in best in 62 clusters for 5 generations
USER: GENES 15
USER: genes 0 Translation |==|  0.62507 0.21064 0.57760
USER: genes 1 Rotation |==|  0.68134 0.56366 0.54929 0.95895
USER: genes 2 Torsion [CB]-CA--N-[C] |==|  0.85397
USER: genes 3 Torsion [N]-C--CA-[N] |==|  0.87506
USER: genes 4 Torsion [C]-CA--N-[C] |==|  0.71440
USER: genes 5 Torsion [N]-C--CA-[N] |==|  0.17355
USER: genes 6 Torsion [C]-CA--N-[C] |==|  0.78611
USER: genes 7 Torsion [N]-C--CA-[N] |==|  0.77968
USER: genes 8 Torsion [N]-CA--C-[N] |==|  0.87400
USER: genes 9 Torsion [C]-N--CA-[CB] |==|  0.18258
USER: genes 10 Torsion [N]-CA--C-[N] |==|  0.10500
USER: genes 11 Torsion [C]-N--CA-[CB] |==|  0.85398
USER: genes 12 Torsion [N]-CA--C-[N] |==|  0.92597
USER: genes 13 Torsion [C]-N--CA-[C] |==|  0.77624
USER: genes 14 Torsion [N]-CA--C-[O] |==|  0.98723
ROOT
ATOM      1  CA  ALA E  11       1.594  18.421   2.591  1.00 85.35 LIG 0.17  C 
ATOM      2  CB  ALA E  11       1.061  17.803   3.885  1.00 80.46 LIG 0.04  C 
ENDROOT
BRANCH 1 3
ATOM      3  N   ALA E  11       2.277  19.677   2.879  1.00 87.15 LIG-0.35  N 
ATOM      4  C   ALA E  10       1.666  20.632   3.585  1.00 62.15 LIG 0.24  C 
ATOM      5 O    ALA E  10       0.611  20.431   4.189  1.00 65.72 LIG-0.27  OA
ATOM      6 H    ALA E  11       3.074  19.739   2.563  1.00 87.15 LIG 0.16  HD
BRANCH 4 7
ATOM      7  CA  ALA E  10       2.324  22.006   3.630  1.00 66.45 LIG 0.17  C 
ATOM      8  CB  ALA E  10       2.062  22.763   2.328  1.00 58.63 LIG 0.04  C 
BRANCH 7 9
ATOM      9  N   ALA E  10       3.758  21.915   3.866  1.00 75.43 LIG-0.35  N 
ATOM     10  C   ALA E   9       4.314  22.165   5.049  1.00 82.21 LIG 0.24  C 
ATOM     11 O    ALA E   9       3.673  22.529   6.041  1.00 73.75 LIG-0.27  OA
ATOM     12 H    ALA E  10       4.210  21.685   3.172  1.00 75.43 LIG 0.16  HD
BRANCH 10 13
ATOM     13  CA  ALA E   9       5.827  22.009   5.123  1.00 87.65 LIG 0.17  C 
ATOM     14  CB  ALA E   9       6.330  22.204   6.552  1.00 72.21 LIG 0.04  C 
BRANCH 13 15
ATOM     15  N   ALA E   9       6.423  22.977   4.212  1.00 84.24 LIG-0.35  N 
ATOM     16 H    ALA E   9       6.754  23.669   4.601  1.00 84.24 LIG 0.16  HD
ATOM     17  C   ALA E   8       6.446  22.793   2.899  1.00 61.40 LIG 0.26  C 
ATOM     18 O    ALA E   8       6.054  21.756   2.366  1.00 66.21 LIG-0.27  OA
BRANCH 17 19
ATOM     19  CA  ALA E   8       7.021  23.935   2.066  1.00 67.03 LIG 0.40  C 
ATOM     20  N   ALA E   8       6.012  25.022   1.895  1.00 60.26 LIG 0.61  N 
ATOM     21  CB  ALA E   8       8.290  24.483   2.709  1.00 64.64 LIG 0.06  C 
ENDBRANCH 17 19
ENDBRANCH 13 15
ENDBRANCH 10 13
ENDBRANCH 7 9
ENDBRANCH 4 7
ENDBRANCH 1 3
BRANCH 1 22
ATOM     22  C   ALA E  11       0.459  18.617   1.594  1.00 81.78 LIG 0.24  C 
ATOM     23  N   ALA E  12      -0.358  19.651   1.788  1.00 82.91 LIG-0.35  N 
ATOM     24 H    ALA E  12      -0.228  20.276   2.366  1.00 82.91 LIG 0.16  HD
ATOM     25 O    ALA E  11       0.305  17.831   0.651  1.00 89.30 LIG-0.27  OA
BRANCH 23 26
ATOM     26  CA  ALA E  12      -1.572  19.786   0.994  1.00 61.10 LIG 0.17  C 
ATOM     27  CB  ALA E  12      -2.555  18.648   1.305  1.00 65.27 LIG 0.04  C 
BRANCH 26 28
ATOM     28  C   ALA E  12      -2.225  21.136   1.245  1.00 54.59 LIG 0.24  C 
ATOM     29  N   ALA E  13      -1.373  22.149   1.398  1.00 64.78 LIG-0.35  N 
ATOM     30 H    ALA E  13      -0.521  22.076   1.301  1.00 64.78 LIG 0.16  HD
ATOM     31 O    ALA E  12      -3.452  21.263   1.262  1.00 69.11 LIG-0.27  OA
BRANCH 29 32
ATOM     32  CA  ALA E  13      -1.821  23.488   1.747  1.00 54.23 LIG 0.17  C 
ATOM     33  CB  ALA E  13      -2.913  23.943   0.778  1.00 56.27 LIG 0.04  C 
BRANCH 32 34
ATOM     34  C   ALA E  13      -2.374  23.563   3.159  1.00 65.29 LIG 0.24  C 
ATOM     35  N   ALA E  14      -2.876  22.429   3.633  1.00 85.74 LIG-0.35  N 
ATOM     36 H    ALA E  14      -2.926  21.704   3.173  1.00 85.74 LIG 0.16  HD
ATOM     37 O    ALA E  13      -2.296  24.599   3.824  1.00 75.52 LIG-0.27  OA
BRANCH 35 38
ATOM     38  CA  ALA E  14      -3.391  22.306   4.985  1.00 94.46 LIG 0.16  C 
ATOM     39  CB  ALA E  14      -4.367  21.154   5.067  1.00106.12 LIG 0.04  C 
BRANCH 38 40
ATOM     40  C   ALA E  14      -2.247  22.109   5.972  1.00 99.07 LIG 0.22  C 
ATOM     41 O    ALA E  14      -1.087  21.988   5.577  1.00120.33 LIG-0.29  OA
ENDBRANCH 38 40
ENDBRANCH 35 38
ENDBRANCH 32 34
ENDBRANCH 29 32
ENDBRANCH 26 28
ENDBRANCH 23 26
ENDBRANCH 1 22
TORSDOF 13
ENDMDL
MODEL 67
USER: ADFR SOLUTION from run 103
USER: SCORE 5.019091 LL:  -2.594 LR:  -4.058 RR:   0.000 FEB:  -0.180
USER: RMSD 4.620295
USER: SEED 102
USER: STATUS no improvement in best in 76 clusters for 5 generations
USER: GENES 15
USER: genes 0 Translation |==|  0.61561 0.35357 0.55697
USER: genes 1 Rotation |==|  0.80973 0.64595 0.56119 0.85920
USER: genes 2 Torsion [CB]-CA--N-[C] |==|  0.79200
USER: genes 3 Torsion [N]-C--CA-[N] |==|  0.87298
USER: genes 4 Torsion [C]-CA--N-[C] |==|  0.80874
USER: genes 5 Torsion [N]-C--CA-[N] |==|  0.41042
USER: genes 6 Torsion [C]-CA--N-[C] |==|  0.86021
USER: genes 7 Torsion [N]-C--CA-[N] |==|  0.07236
USER: genes 8 Torsion [N]-CA--C-[N] |==|  0.15382
USER: genes 9 Torsion [C]-N--CA-[CB] |==|  0.19934
USER: genes 10 Torsion [N]-CA--C-[N] |==|  0.55962
USER: genes 11 Torsion [C]-N--CA-[CB] |==|  0.16959
USER: genes 12 Torsion [N]-CA--C-[N] |==|  0.09082
USER: genes 13 Torsion [C]-N--CA-[C] |==|  0.75236
USER: genes 14 Torsion [N]-CA--C-[O] |==|  0.99706
ROOT
ATOM      1  CA  ALA E  11       1.381  20.993   2.219  1.00 85.35 LIG 0.17  C 
ATOM      2  CB  ALA E  11       1.421  19.682   3.006  1.00 80.46 LIG 0.04  C 
ENDROOT
BRANCH 1 3
ATOM      3  N   ALA E  11       2.104  22.034   2.942  1.00 87.15 LIG-0.35  N 
ATOM      4  C   ALA E  10       1.564  22.607   4.021  1.00 62.15 LIG 0.24  C 
ATOM      5 O    ALA E  10       0.556  22.160   4.569  1.00 65.72 LIG-0.27  OA
ATOM      6 H    ALA E  11       2.876  22.232   2.619  1.00 87.15 LIG 0.16  HD
BRANCH 4 7
ATOM      7  CA  ALA E  10       2.247  23.854   4.572  1.00 66.45 LIG 0.17  C 
ATOM      8  CB  ALA E  10       1.914  25.068   3.707  1.00 58.63 LIG 0.04  C 
BRANCH 7 9
ATOM      9  N   ALA E  10       3.691  23.691   4.658  1.00 75.43 LIG-0.35  N 
ATOM     10  C   ALA E   9       4.278  22.863   5.520  1.00 82.21 LIG 0.24  C 
ATOM     11 O    ALA E   9       3.655  22.186   6.345  1.00 73.75 LIG-0.27  OA
ATOM     12 H    ALA E  10       4.129  24.178   4.100  1.00 75.43 LIG 0.16  HD
BRANCH 10 13
ATOM     13  CA  ALA E   9       5.798  22.807   5.464  1.00 87.65 LIG 0.17  C 
ATOM     14  CB  ALA E   9       6.272  21.737   4.481  1.00 72.21 LIG 0.04  C 
BRANCH 13 15
ATOM     15  N   ALA E   9       6.287  22.546   6.812  1.00 84.24 LIG-0.35  N 
ATOM     16 H    ALA E   9       6.850  21.898   6.862  1.00 84.24 LIG 0.16  HD
ATOM     17  C   ALA E   8       5.888  23.254   7.859  1.00 61.40 LIG 0.26  C 
ATOM     18 O    ALA E   8       5.155  24.236   7.757  1.00 66.21 LIG-0.27  OA
BRANCH 17 19
ATOM     19  CA  ALA E   8       6.415  22.806   9.219  1.00 67.03 LIG 0.40  C 
ATOM     20  N   ALA E   8       7.718  22.091   9.069  1.00 60.26 LIG 0.61  N 
ATOM     21  CB  ALA E   8       6.568  23.999  10.156  1.00 64.64 LIG 0.06  C 
ENDBRANCH 17 19
ENDBRANCH 13 15
ENDBRANCH 10 13
ENDBRANCH 7 9
ENDBRANCH 4 7
ENDBRANCH 1 3
BRANCH 1 22
ATOM     22  C   ALA E  11      -0.061  21.402   1.947  1.00 81.78 LIG 0.24  C 
ATOM     23  N   ALA E  12      -0.264  22.550   1.303  1.00 82.91 LIG-0.35  N 
ATOM     24 H    ALA E  12       0.355  23.020   0.934  1.00 82.91 LIG 0.16  HD
ATOM     25 O    ALA E  11      -0.999  20.691   2.327  1.00 89.30 LIG-0.27  OA
BRANCH 23 26
ATOM     26  CA  ALA E  12      -1.609  23.095   1.183  1.00 61.10 LIG 0.17  C 
ATOM     27  CB  ALA E  12      -2.102  23.634   2.534  1.00 65.27 LIG 0.04  C 
BRANCH 26 28
ATOM     28  C   ALA E  12      -1.649  24.189   0.128  1.00 54.59 LIG 0.24  C 
ATOM     29  N   ALA E  13      -2.668  25.040   0.244  1.00 64.78 LIG-0.35  N 
ATOM     30 H    ALA E  13      -3.231  25.026   0.894  1.00 64.78 LIG 0.16  HD
ATOM     31 O    ALA E  12      -0.771  24.284  -0.734  1.00 69.11 LIG-0.27  OA
BRANCH 29 32
ATOM     32  CA  ALA E  13      -2.918  26.083  -0.739  1.00 54.23 LIG 0.17  C 
ATOM     33  CB  ALA E  13      -3.187  25.457  -2.108  1.00 56.27 LIG 0.04  C 
BRANCH 32 34
ATOM     34  C   ALA E  13      -4.106  26.953  -0.370  1.00 65.29 LIG 0.24  C 
ATOM     35  N   ALA E  14      -4.294  27.133   0.933  1.00 85.74 LIG-0.35  N 
ATOM     36 H    ALA E  14      -3.811  26.761   1.537  1.00 85.74 LIG 0.16  HD
ATOM     37 O    ALA E  13      -4.797  27.496  -1.235  1.00 75.52 LIG-0.27  OA
BRANCH 35 38
ATOM     38  CA  ALA E  14      -5.346  27.985   1.460  1.00 94.46 LIG 0.16  C 
ATOM     39  CB  ALA E  14      -5.828  27.452   2.790  1.00106.12 LIG 0.04  C 
BRANCH 38 40
ATOM     40  C   ALA E  14      -4.844  29.417   1.607  1.00 99.07 LIG 0.22  C 
ATOM     41 O    ALA E  14      -3.685  29.712   1.314  1.00120.33 LIG-0.29  OA
ENDBRANCH 38 40
ENDBRANCH 35 38
ENDBRANCH 32 34
ENDBRANCH 29 32
ENDBRANCH 26 28
ENDBRANCH 23 26
ENDBRANCH 1 22
TORSDOF 13
ENDMDL
MODEL 68
USER: ADFR SOLUTION from run 103
USER: SCORE 5.260741 LL:  -2.382 LR:  -4.055 RR:   0.000 FEB:  -0.177
USER: RMSD 4.614706
USER: SEED 102
USER: STATUS no improvement in best in 76 clusters for 5 generations
USER: GENES 15
USER: genes 0 Translation |==|  0.61561 0.35357 0.55697
USER: genes 1 Rotation |==|  0.80973 0.64595 0.56119 0.85920
USER: genes 2 Torsion [CB]-CA--N-[C] |==|  0.79200
USER: genes 3 Torsion [N]-C--CA-[N] |==|  0.87298
USER: genes 4 Torsion [C]-CA--N-[C] |==|  0.80874
USER: genes 5 Torsion [N]-C--CA-[N] |==|  0.41042
USER: genes 6 Torsion [C]-CA--N-[C] |==|  0.86021
USER: genes 7 Torsion [N]-C--CA-[N] |==|  0.07236
USER: genes 8 Torsion [N]-CA--C-[N] |==|  0.15382
USER: genes 9 Torsion [C]-N--CA-[CB] |==|  0.51111
USER: genes 10 Torsion [N]-CA--C-[N] |==|  0.42689
USER: genes 11 Torsion [C]-N--CA-[CB] |==|  0.52612
USER: genes 12 Torsion [N]-CA--C-[N] |==|  0.42797
USER: genes 13 Torsion [C]-N--CA-[C] |==|  0.75305
USER: genes 14 Torsion [N]-CA--C-[O] |==|  0.00532
ROOT
ATOM      1  CA  ALA E  11       1.381  20.993   2.219  1.00 85.35 LIG 0.17  C 
ATOM      2  CB  ALA E  11       1.421  19.682   3.006  1.00 80.46 LIG 0.04  C 
ENDROOT
BRANCH 1 3
ATOM      3  N   ALA E  11       2.104  22.034   2.942  1.00 87.15 LIG-0.35  N 
ATOM      4  C   ALA E  10       1.564  22.607   4.021  1.00 62.15 LIG 0.24  C 
ATOM      5 O    ALA E  10       0.556  22.160   4.569  1.00 65.72 LIG-0.27  OA
ATOM      6 H    ALA E  11       2.876  22.232   2.619  1.00 87.15 LIG 0.16  HD
BRANCH 4 7
ATOM      7  CA  ALA E  10       2.247  23.854   4.572  1.00 66.45 LIG 0.17  C 
ATOM      8  CB  ALA E  10       1.914  25.068   3.707  1.00 58.63 LIG 0.04  C 
BRANCH 7 9
ATOM      9  N   ALA E  10       3.691  23.691   4.658  1.00 75.43 LIG-0.35  N 
ATOM     10  C   ALA E   9       4.278  22.863   5.520  1.00 82.21 LIG 0.24  C 
ATOM     11 O    ALA E   9       3.655  22.186   6.345  1.00 73.75 LIG-0.27  OA
ATOM     12 H    ALA E  10       4.129  24.178   4.100  1.00 75.43 LIG 0.16  HD
BRANCH 10 13
ATOM     13  CA  ALA E   9       5.798  22.807   5.464  1.00 87.65 LIG 0.17  C 
ATOM     14  CB  ALA E   9       6.272  21.737   4.481  1.00 72.21 LIG 0.04  C 
BRANCH 13 15
ATOM     15  N   ALA E   9       6.287  22.546   6.812  1.00 84.24 LIG-0.35  N 
ATOM     16 H    ALA E   9       6.850  21.898   6.862  1.00 84.24 LIG 0.16  HD
ATOM     17  C   ALA E   8       5.888  23.254   7.859  1.00 61.40 LIG 0.26  C 
ATOM     18 O    ALA E   8       5.155  24.236   7.757  1.00 66.21 LIG-0.27  OA
BRANCH 17 19
ATOM     19  CA  ALA E   8       6.415  22.806   9.219  1.00 67.03 LIG 0.40  C 
ATOM     20  N   ALA E   8       7.718  22.091   9.069  1.00 60.26 LIG 0.61  N 
ATOM     21  CB  ALA E   8       6.568  23.999  10.156  1.00 64.64 LIG 0.06  C 
ENDBRANCH 17 19
ENDBRANCH 13 15
ENDBRANCH 10 13
ENDBRANCH 7 9
ENDBRANCH 4 7
ENDBRANCH 1 3
BRANCH 1 22
ATOM     22  C   ALA E  11      -0.061  21.402   1.947  1.00 81.78 LIG 0.24  C 
ATOM     23  N   ALA E  12      -0.264  22.550   1.303  1.00 82.91 LIG-0.35  N 
ATOM     24 H    ALA E  12       0.355  23.020   0.934  1.00 82.91 LIG 0.16  HD
ATOM     25 O    ALA E  11      -0.999  20.691   2.327  1.00 89.30 LIG-0.27  OA
BRANCH 23 26
ATOM     26  CA  ALA E  12      -1.609  23.095   1.183  1.00 61.10 LIG 0.17  C 
ATOM     27  CB  ALA E  12      -1.607  24.365   0.319  1.00 65.27 LIG 0.04  C 
BRANCH 26 28
ATOM     28  C   ALA E  12      -2.555  22.057   0.599  1.00 54.59 LIG 0.24  C 
ATOM     29  N   ALA E  13      -3.834  22.214   0.940  1.00 64.78 LIG-0.35  N 
ATOM     30 H    ALA E  13      -4.129  22.879   1.398  1.00 64.78 LIG 0.16  HD
ATOM     31 O    ALA E  12      -2.150  21.173  -0.159  1.00 69.11 LIG-0.27  OA
BRANCH 29 32
ATOM     32  CA  ALA E  13      -4.857  21.254   0.557  1.00 54.23 LIG 0.17  C 
ATOM     33  CB  ALA E  13      -6.244  21.810   0.882  1.00 56.27 LIG 0.04  C 
BRANCH 32 34
ATOM     34  C   ALA E  13      -4.812  20.919  -0.923  1.00 65.29 LIG 0.24  C 
ATOM     35  N   ALA E  14      -5.298  19.727  -1.250  1.00 85.74 LIG-0.35  N 
ATOM     36 H    ALA E  14      -5.586  19.158  -0.673  1.00 85.74 LIG 0.16  HD
ATOM     37 O    ALA E  13      -4.407  21.736  -1.754  1.00 75.52 LIG-0.27  OA
BRANCH 35 38
ATOM     38  CA  ALA E  14      -5.387  19.269  -2.625  1.00 94.46 LIG 0.16  C 
ATOM     39  CB  ALA E  14      -5.224  17.767  -2.685  1.00106.12 LIG 0.04  C 
BRANCH 38 40
ATOM     40  C   ALA E  14      -6.720  19.687  -3.237  1.00 99.07 LIG 0.22  C 
ATOM     41 O    ALA E  14      -7.529  20.353  -2.590  1.00120.33 LIG-0.29  OA
ENDBRANCH 38 40
ENDBRANCH 35 38
ENDBRANCH 32 34
ENDBRANCH 29 32
ENDBRANCH 26 28
ENDBRANCH 23 26
ENDBRANCH 1 22
TORSDOF 13
ENDMDL
MODEL 69
USER: ADFR SOLUTION from run 189
USER: SCORE 5.033921 LL:  -2.808 LR:  -4.055 RR:   0.000 FEB:  -0.177
USER: RMSD 4.845882
USER: SEED 188
USER: STATUS searching
USER: GENES 15
USER: genes 0 Translation |==|  0.69184 0.36614 0.60382
USER: genes 1 Rotation |==|  0.80426 0.58168 0.61740 0.87009
USER: genes 2 Torsion [CB]-CA--N-[C] |==|  0.21311
USER: genes 3 Torsion [N]-C--CA-[N] |==|  0.99899
USER: genes 4 Torsion [C]-CA--N-[C] |==|  0.69462
USER: genes 5 Torsion [N]-C--CA-[N] |==|  0.47813
USER: genes 6 Torsion [C]-CA--N-[C] |==|  0.77307
USER: genes 7 Torsion [N]-C--CA-[N] |==|  0.31578
USER: genes 8 Torsion [N]-CA--C-[N] |==|  0.09713
USER: genes 9 Torsion [C]-N--CA-[CB] |==|  0.17949
USER: genes 10 Torsion [N]-CA--C-[N] |==|  0.54346
USER: genes 11 Torsion [C]-N--CA-[CB] |==|  0.17013
USER: genes 12 Torsion [N]-CA--C-[N] |==|  0.09522
USER: genes 13 Torsion [C]-N--CA-[C] |==|  0.53024
USER: genes 14 Torsion [N]-CA--C-[O] |==|  0.96894
ROOT
ATOM      1  CA  ALA E  11       3.096  21.220   3.063  1.00 85.35 LIG 0.17  C 
ATOM      2  CB  ALA E  11       2.887  19.867   3.747  1.00 80.46 LIG 0.04  C 
ENDROOT
BRANCH 1 3
ATOM      3  N   ALA E  11       3.523  22.215   4.040  1.00 87.15 LIG-0.35  N 
ATOM      4  C   ALA E  10       4.782  22.228   4.486  1.00 62.15 LIG 0.24  C 
ATOM      5 O    ALA E  10       5.673  21.558   3.962  1.00 65.72 LIG-0.27  OA
ATOM      6 H    ALA E  11       2.912  22.767   4.288  1.00 87.15 LIG 0.16  HD
BRANCH 4 7
ATOM      7  CA  ALA E  10       5.096  23.116   5.684  1.00 66.45 LIG 0.17  C 
ATOM      8  CB  ALA E  10       5.679  22.283   6.825  1.00 58.63 LIG 0.04  C 
BRANCH 7 9
ATOM      9  N   ALA E  10       3.920  23.835   6.152  1.00 75.43 LIG-0.35  N 
ATOM     10  C   ALA E   9       3.770  25.150   6.010  1.00 82.21 LIG 0.24  C 
ATOM     11 O    ALA E   9       4.626  25.882   5.502  1.00 73.75 LIG-0.27  OA
ATOM     12 H    ALA E  10       3.332  23.331   6.527  1.00 75.43 LIG 0.16  HD
BRANCH 10 13
ATOM     13  CA  ALA E   9       2.470  25.737   6.544  1.00 87.65 LIG 0.17  C 
ATOM     14  CB  ALA E   9       1.270  25.221   5.754  1.00 72.21 LIG 0.04  C 
BRANCH 13 15
ATOM     15  N   ALA E   9       2.571  27.189   6.472  1.00 84.24 LIG-0.35  N 
ATOM     16 H    ALA E   9       2.191  27.534   5.782  1.00 84.24 LIG 0.16  HD
ATOM     17  C   ALA E   8       3.199  27.902   7.397  1.00 61.40 LIG 0.26  C 
ATOM     18 O    ALA E   8       3.656  27.403   8.424  1.00 66.21 LIG-0.27  OA
BRANCH 17 19
ATOM     19  CA  ALA E   8       3.302  29.402   7.139  1.00 67.03 LIG 0.40  C 
ATOM     20  N   ALA E   8       2.506  30.165   8.147  1.00 60.26 LIG 0.61  N 
ATOM     21  CB  ALA E   8       4.758  29.853   7.161  1.00 64.64 LIG 0.06  C 
ENDBRANCH 17 19
ENDBRANCH 13 15
ENDBRANCH 10 13
ENDBRANCH 7 9
ENDBRANCH 4 7
ENDBRANCH 1 3
BRANCH 1 22
ATOM     22  C   ALA E  11       1.823  21.651   2.346  1.00 81.78 LIG 0.24  C 
ATOM     23  N   ALA E  12       1.666  22.950   2.099  1.00 82.91 LIG-0.35  N 
ATOM     24 H    ALA E  12       2.275  23.547   2.213  1.00 82.91 LIG 0.16  HD
ATOM     25 O    ALA E  11       0.969  20.816   2.023  1.00 89.30 LIG-0.27  OA
BRANCH 23 26
ATOM     26  CA  ALA E  12       0.395  23.453   1.597  1.00 61.10 LIG 0.17  C 
ATOM     27  CB  ALA E  12      -0.719  23.252   2.635  1.00 65.27 LIG 0.04  C 
BRANCH 26 28
ATOM     28  C   ALA E  12       0.513  24.921   1.221  1.00 54.59 LIG 0.24  C 
ATOM     29  N   ALA E  13      -0.650  25.553   1.065  1.00 64.78 LIG-0.35  N 
ATOM     30 H    ALA E  13      -1.415  25.193   1.224  1.00 64.78 LIG 0.16  HD
ATOM     31 O    ALA E  12       1.612  25.471   1.114  1.00 69.11 LIG-0.27  OA
BRANCH 29 32
ATOM     32  CA  ALA E  13      -0.724  26.931   0.606  1.00 54.23 LIG 0.17  C 
ATOM     33  CB  ALA E  13      -0.119  27.048  -0.793  1.00 56.27 LIG 0.04  C 
BRANCH 32 34
ATOM     34  C   ALA E  13      -2.151  27.448   0.554  1.00 65.29 LIG 0.24  C 
ATOM     35  N   ALA E  14      -2.958  26.980   1.499  1.00 85.74 LIG-0.35  N 
ATOM     36 H    ALA E  14      -2.717  26.396   2.082  1.00 85.74 LIG 0.16  HD
ATOM     37 O    ALA E  13      -2.498  28.292  -0.276  1.00 75.52 LIG-0.27  OA
BRANCH 35 38
ATOM     38  CA  ALA E  14      -4.337  27.414   1.635  1.00 94.46 LIG 0.16  C 
ATOM     39  CB  ALA E  14      -5.157  26.916   0.466  1.00106.12 LIG 0.04  C 
BRANCH 38 40
ATOM     40  C   ALA E  14      -4.923  26.915   2.951  1.00 99.07 LIG 0.22  C 
ATOM     41 O    ALA E  14      -4.325  26.080   3.630  1.00120.33 LIG-0.29  OA
ENDBRANCH 38 40
ENDBRANCH 35 38
ENDBRANCH 32 34
ENDBRANCH 29 32
ENDBRANCH 26 28
ENDBRANCH 23 26
ENDBRANCH 1 22
TORSDOF 13
ENDMDL
MODEL 70
USER: ADFR SOLUTION from run 116
USER: SCORE 6.252883 LL:  -3.413 LR:  -4.059 RR:   0.000 FEB:  -0.182
USER: RMSD 6.053380
USER: SEED 115
USER: STATUS no improvement in best in 55 clusters for 5 generations
USER: GENES 15
USER: genes 0 Translation |==|  0.62961 0.32964 0.59957
USER: genes 1 Rotation |==|  0.78984 0.73601 0.49567 0.83207
USER: genes 2 Torsion [CB]-CA--N-[C] |==|  0.14539
USER: genes 3 Torsion [N]-C--CA-[N] |==|  0.02837
USER: genes 4 Torsion [C]-CA--N-[C] |==|  0.19636
USER: genes 5 Torsion [N]-C--CA-[N] |==|  0.01546
USER: genes 6 Torsion [C]-CA--N-[C] |==|  0.74544
USER: genes 7 Torsion [N]-C--CA-[N] |==|  0.46897
USER: genes 8 Torsion [N]-CA--C-[N] |==|  0.17177
USER: genes 9 Torsion [C]-N--CA-[CB] |==|  0.85398
USER: genes 10 Torsion [N]-CA--C-[N] |==|  0.44045
USER: genes 11 Torsion [C]-N--CA-[CB] |==|  0.85000
USER: genes 12 Torsion [N]-CA--C-[N] |==|  0.42446
USER: genes 13 Torsion [C]-N--CA-[C] |==|  0.80795
USER: genes 14 Torsion [N]-CA--C-[O] |==|  0.98264
ROOT
ATOM      1  CA  ALA E  11       1.696  20.562   2.986  1.00 85.35 LIG 0.17  C 
ATOM      2  CB  ALA E  11       2.191  19.361   3.794  1.00 80.46 LIG 0.04  C 
ENDROOT
BRANCH 1 3
ATOM      3  N   ALA E  11       2.557  21.716   3.224  1.00 87.15 LIG-0.35  N 
ATOM      4  C   ALA E  10       3.881  21.613   3.073  1.00 62.15 LIG 0.24  C 
ATOM      5 O    ALA E  10       4.409  20.635   2.543  1.00 65.72 LIG-0.27  OA
ATOM      6 H    ALA E  11       2.147  22.434   3.459  1.00 87.15 LIG 0.16  HD
BRANCH 4 7
ATOM      7  CA  ALA E  10       4.738  22.767   3.581  1.00 66.45 LIG 0.17  C 
ATOM      8  CB  ALA E  10       5.910  22.234   4.404  1.00 58.63 LIG 0.04  C 
BRANCH 7 9
ATOM      9  N   ALA E  10       3.967  23.710   4.376  1.00 75.43 LIG-0.35  N 
ATOM     10  C   ALA E   9       3.503  23.425   5.591  1.00 82.21 LIG 0.24  C 
ATOM     11 O    ALA E   9       3.656  22.327   6.139  1.00 73.75 LIG-0.27  OA
ATOM     12 H    ALA E  10       3.838  24.467   3.989  1.00 75.43 LIG 0.16  HD
BRANCH 10 13
ATOM     13  CA  ALA E   9       2.726  24.534   6.288  1.00 87.65 LIG 0.17  C 
ATOM     14  CB  ALA E   9       1.372  24.029   6.780  1.00 72.21 LIG 0.04  C 
BRANCH 13 15
ATOM     15  N   ALA E   9       2.574  25.635   5.346  1.00 84.24 LIG-0.35  N 
ATOM     16 H    ALA E   9       1.875  25.577   4.847  1.00 84.24 LIG 0.16  HD
ATOM     17  C   ALA E   8       3.445  26.631   5.274  1.00 61.40 LIG 0.26  C 
ATOM     18 O    ALA E   8       4.387  26.748   6.055  1.00 66.21 LIG-0.27  OA
BRANCH 17 19
ATOM     19  CA  ALA E   8       3.203  27.663   4.177  1.00 67.03 LIG 0.40  C 
ATOM     20  N   ALA E   8       4.080  28.856   4.373  1.00 60.26 LIG 0.61  N 
ATOM     21  CB  ALA E   8       3.439  27.051   2.801  1.00 64.64 LIG 0.06  C 
ENDBRANCH 17 19
ENDBRANCH 13 15
ENDBRANCH 10 13
ENDBRANCH 7 9
ENDBRANCH 4 7
ENDBRANCH 1 3
BRANCH 1 22
ATOM     22  C   ALA E  11       0.244  20.869   3.333  1.00 81.78 LIG 0.24  C 
ATOM     23  N   ALA E  12      -0.361  21.834   2.643  1.00 82.91 LIG-0.35  N 
ATOM     24 H    ALA E  12      -0.033  22.220   1.948  1.00 82.91 LIG 0.16  HD
ATOM     25 O    ALA E  11      -0.334  20.246   4.231  1.00 89.30 LIG-0.27  OA
BRANCH 23 26
ATOM     26  CA  ALA E  12      -1.676  22.311   3.050  1.00 61.10 LIG 0.17  C 
ATOM     27  CB  ALA E  12      -2.658  21.139   3.200  1.00 65.27 LIG 0.04  C 
BRANCH 26 28
ATOM     28  C   ALA E  12      -1.581  23.094   4.350  1.00 54.59 LIG 0.24  C 
ATOM     29  N   ALA E  13      -2.595  23.931   4.573  1.00 64.78 LIG-0.35  N 
ATOM     30 H    ALA E  13      -3.287  23.989   4.067  1.00 64.78 LIG 0.16  HD
ATOM     31 O    ALA E  12      -0.648  22.921   5.138  1.00 69.11 LIG-0.27  OA
BRANCH 29 32
ATOM     32  CA  ALA E  13      -2.614  24.832   5.714  1.00 54.23 LIG 0.17  C 
ATOM     33  CB  ALA E  13      -2.403  24.042   7.007  1.00 56.27 LIG 0.04  C 
BRANCH 32 34
ATOM     34  C   ALA E  13      -1.538  25.900   5.627  1.00 65.29 LIG 0.24  C 
ATOM     35  N   ALA E  14      -1.813  27.034   6.260  1.00 85.74 LIG-0.35  N 
ATOM     36 H    ALA E  14      -2.557  27.184   6.664  1.00 85.74 LIG 0.16  HD
ATOM     37 O    ALA E  13      -0.466  25.686   5.056  1.00 75.52 LIG-0.27  OA
BRANCH 35 38
ATOM     38  CA  ALA E  14      -0.873  28.138   6.330  1.00 94.46 LIG 0.16  C 
ATOM     39  CB  ALA E  14      -1.561  29.375   6.863  1.00106.12 LIG 0.04  C 
BRANCH 38 40
ATOM     40  C   ALA E  14       0.316  27.767   7.210  1.00 99.07 LIG 0.22  C 
ATOM     41 O    ALA E  14       0.329  26.707   7.836  1.00120.33 LIG-0.29  OA
ENDBRANCH 38 40
ENDBRANCH 35 38
ENDBRANCH 32 34
ENDBRANCH 29 32
ENDBRANCH 26 28
ENDBRANCH 23 26
ENDBRANCH 1 22
TORSDOF 13
ENDMDL
MODEL 71
USER: ADFR SOLUTION from run 189
USER: SCORE 5.514590 LL:  -2.576 LR:  -4.048 RR:   0.000 FEB:  -0.170
USER: RMSD 4.958434
USER: SEED 188
USER: STATUS searching
USER: GENES 15
USER: genes 0 Translation |==|  0.69184 0.36615 0.60382
USER: genes 1 Rotation |==|  0.80428 0.58165 0.61736 0.87010
USER: genes 2 Torsion [CB]-CA--N-[C] |==|  0.21311
USER: genes 3 Torsion [N]-C--CA-[N] |==|  0.99919
USER: genes 4 Torsion [C]-CA--N-[C] |==|  0.69463
USER: genes 5 Torsion [N]-C--CA-[N] |==|  0.47814
USER: genes 6 Torsion [C]-CA--N-[C] |==|  0.77307
USER: genes 7 Torsion [N]-C--CA-[N] |==|  0.31580
USER: genes 8 Torsion [N]-CA--C-[N] |==|  0.07661
USER: genes 9 Torsion [C]-N--CA-[CB] |==|  0.51180
USER: genes 10 Torsion [N]-CA--C-[N] |==|  0.43453
USER: genes 11 Torsion [C]-N--CA-[CB] |==|  0.84792
USER: genes 12 Torsion [N]-CA--C-[N] |==|  0.38908
USER: genes 13 Torsion [C]-N--CA-[C] |==|  0.53024
USER: genes 14 Torsion [N]-CA--C-[O] |==|  0.99513
ROOT
ATOM      1  CA  ALA E  11       3.096  21.220   3.063  1.00 85.35 LIG 0.17  C 
ATOM      2  CB  ALA E  11       2.887  19.867   3.747  1.00 80.46 LIG 0.04  C 
ENDROOT
BRANCH 1 3
ATOM      3  N   ALA E  11       3.523  22.215   4.040  1.00 87.15 LIG-0.35  N 
ATOM      4  C   ALA E  10       4.782  22.227   4.486  1.00 62.15 LIG 0.24  C 
ATOM      5 O    ALA E  10       5.673  21.557   3.962  1.00 65.72 LIG-0.27  OA
ATOM      6 H    ALA E  11       2.912  22.767   4.288  1.00 87.15 LIG 0.16  HD
BRANCH 4 7
ATOM      7  CA  ALA E  10       5.096  23.116   5.684  1.00 66.45 LIG 0.17  C 
ATOM      8  CB  ALA E  10       5.681  22.283   6.824  1.00 58.63 LIG 0.04  C 
BRANCH 7 9
ATOM      9  N   ALA E  10       3.920  23.833   6.153  1.00 75.43 LIG-0.35  N 
ATOM     10  C   ALA E   9       3.769  25.148   6.012  1.00 82.21 LIG 0.24  C 
ATOM     11 O    ALA E   9       4.624  25.882   5.503  1.00 73.75 LIG-0.27  OA
ATOM     12 H    ALA E  10       3.333  23.329   6.529  1.00 75.43 LIG 0.16  HD
BRANCH 10 13
ATOM     13  CA  ALA E   9       2.469  25.734   6.547  1.00 87.65 LIG 0.17  C 
ATOM     14  CB  ALA E   9       1.269  25.217   5.758  1.00 72.21 LIG 0.04  C 
BRANCH 13 15
ATOM     15  N   ALA E   9       2.569  27.186   6.475  1.00 84.24 LIG-0.35  N 
ATOM     16 H    ALA E   9       2.188  27.532   5.786  1.00 84.24 LIG 0.16  HD
ATOM     17  C   ALA E   8       3.197  27.900   7.400  1.00 61.40 LIG 0.26  C 
ATOM     18 O    ALA E   8       3.655  27.401   8.426  1.00 66.21 LIG-0.27  OA
BRANCH 17 19
ATOM     19  CA  ALA E   8       3.299  29.400   7.142  1.00 67.03 LIG 0.40  C 
ATOM     20  N   ALA E   8       2.503  30.163   8.151  1.00 60.26 LIG 0.61  N 
ATOM     21  CB  ALA E   8       4.755  29.852   7.163  1.00 64.64 LIG 0.06  C 
ENDBRANCH 17 19
ENDBRANCH 13 15
ENDBRANCH 10 13
ENDBRANCH 7 9
ENDBRANCH 4 7
ENDBRANCH 1 3
BRANCH 1 22
ATOM     22  C   ALA E  11       1.823  21.651   2.346  1.00 81.78 LIG 0.24  C 
ATOM     23  N   ALA E  12       1.594  22.958   2.232  1.00 82.91 LIG-0.35  N 
ATOM     24 H    ALA E  12       2.160  23.574   2.434  1.00 82.91 LIG 0.16  HD
ATOM     25 O    ALA E  11       1.034  20.808   1.902  1.00 89.30 LIG-0.27  OA
BRANCH 23 26
ATOM     26  CA  ALA E  12       0.311  23.438   1.737  1.00 61.10 LIG 0.17  C 
ATOM     27  CB  ALA E  12       0.319  24.967   1.594  1.00 65.27 LIG 0.04  C 
BRANCH 26 28
ATOM     28  C   ALA E  12      -0.025  22.782   0.407  1.00 54.59 LIG 0.24  C 
ATOM     29  N   ALA E  13      -1.325  22.751   0.113  1.00 64.78 LIG-0.35  N 
ATOM     30 H    ALA E  13      -1.933  23.124   0.593  1.00 64.78 LIG 0.16  HD
ATOM     31 O    ALA E  12       0.858  22.354  -0.341  1.00 69.11 LIG-0.27  OA
BRANCH 29 32
ATOM     32  CA  ALA E  13      -1.833  22.070  -1.068  1.00 54.23 LIG 0.17  C 
ATOM     33  CB  ALA E  13      -1.125  22.594  -2.318  1.00 56.27 LIG 0.04  C 
BRANCH 32 34
ATOM     34  C   ALA E  13      -1.632  20.567  -1.000  1.00 65.29 LIG 0.24  C 
ATOM     35  N   ALA E  14      -2.642  19.838  -1.461  1.00 85.74 LIG-0.35  N 
ATOM     36 H    ALA E  14      -3.380  20.176  -1.745  1.00 85.74 LIG 0.16  HD
ATOM     37 O    ALA E  13      -0.572  20.078  -0.601  1.00 75.52 LIG-0.27  OA
BRANCH 35 38
ATOM     38  CA  ALA E  14      -2.595  18.389  -1.527  1.00 94.46 LIG 0.16  C 
ATOM     39  CB  ALA E  14      -2.602  17.804  -0.133  1.00106.12 LIG 0.04  C 
BRANCH 38 40
ATOM     40  C   ALA E  14      -3.771  17.856  -2.337  1.00 99.07 LIG 0.22  C 
ATOM     41 O    ALA E  14      -4.615  18.623  -2.802  1.00120.33 LIG-0.29  OA
ENDBRANCH 38 40
ENDBRANCH 35 38
ENDBRANCH 32 34
ENDBRANCH 29 32
ENDBRANCH 26 28
ENDBRANCH 23 26
ENDBRANCH 1 22
TORSDOF 13
ENDMDL
MODEL 72
USER: ADFR SOLUTION from run 170
USER: SCORE 4.800611 LL:  -2.264 LR:  -4.049 RR:   0.000 FEB:  -0.171
USER: RMSD 4.885234
USER: SEED 169
USER: STATUS no improvement in best in 65 clusters for 5 generations
USER: GENES 15
USER: genes 0 Translation |==|  0.57786 0.23386 0.60570
USER: genes 1 Rotation |==|  0.77108 0.77265 0.57866 0.80983
USER: genes 2 Torsion [CB]-CA--N-[C] |==|  0.15098
USER: genes 3 Torsion [N]-C--CA-[N] |==|  0.44078
USER: genes 4 Torsion [C]-CA--N-[C] |==|  0.63426
USER: genes 5 Torsion [N]-C--CA-[N] |==|  0.17276
USER: genes 6 Torsion [C]-CA--N-[C] |==|  0.78838
USER: genes 7 Torsion [N]-C--CA-[N] |==|  0.33509
USER: genes 8 Torsion [N]-CA--C-[N] |==|  0.51953
USER: genes 9 Torsion [C]-N--CA-[CB] |==|  0.84032
USER: genes 10 Torsion [N]-CA--C-[N] |==|  0.37354
USER: genes 11 Torsion [C]-N--CA-[CB] |==|  0.84013
USER: genes 12 Torsion [N]-CA--C-[N] |==|  0.38736
USER: genes 13 Torsion [C]-N--CA-[C] |==|  0.75895
USER: genes 14 Torsion [N]-CA--C-[O] |==|  0.99638
ROOT
ATOM      1  CA  ALA E  11       0.532  18.838   3.097  1.00 85.35 LIG 0.17  C 
ATOM      2  CB  ALA E  11       1.384  17.751   3.754  1.00 80.46 LIG 0.04  C 
ENDROOT
BRANCH 1 3
ATOM      3  N   ALA E  11       0.946  20.155   3.569  1.00 87.15 LIG-0.35  N 
ATOM      4  C   ALA E  10       2.223  20.536   3.472  1.00 62.15 LIG 0.24  C 
ATOM      5 O    ALA E  10       3.051  19.906   2.814  1.00 65.72 LIG-0.27  OA
ATOM      6 H    ALA E  11       0.316  20.638   3.900  1.00 87.15 LIG 0.16  HD
BRANCH 4 7
ATOM      7  CA  ALA E  10       2.637  21.804   4.211  1.00 66.45 LIG 0.17  C 
ATOM      8  CB  ALA E  10       2.204  23.041   3.426  1.00 58.63 LIG 0.04  C 
BRANCH 7 9
ATOM      9  N   ALA E  10       4.071  21.850   4.452  1.00 75.43 LIG-0.35  N 
ATOM     10  C   ALA E   9       4.599  22.140   5.639  1.00 82.21 LIG 0.24  C 
ATOM     11 O    ALA E   9       3.922  22.427   6.633  1.00 73.75 LIG-0.27  OA
ATOM     12 H    ALA E  10       4.545  21.673   3.756  1.00 75.43 LIG 0.16  HD
BRANCH 10 13
ATOM     13  CA  ALA E   9       6.119  22.130   5.717  1.00 87.65 LIG 0.17  C 
ATOM     14  CB  ALA E   9       6.597  22.364   7.148  1.00 72.21 LIG 0.04  C 
BRANCH 13 15
ATOM     15  N   ALA E   9       6.620  23.157   4.813  1.00 84.24 LIG-0.35  N 
ATOM     16 H    ALA E   9       6.892  23.872   5.208  1.00 84.24 LIG 0.16  HD
ATOM     17  C   ALA E   8       6.649  22.992   3.498  1.00 61.40 LIG 0.26  C 
ATOM     18 O    ALA E   8       6.346  21.931   2.955  1.00 66.21 LIG-0.27  OA
BRANCH 17 19
ATOM     19  CA  ALA E   8       7.115  24.189   2.675  1.00 67.03 LIG 0.40  C 
ATOM     20  N   ALA E   8       8.321  23.836   1.867  1.00 60.26 LIG 0.61  N 
ATOM     21  CB  ALA E   8       5.995  24.687   1.769  1.00 64.64 LIG 0.06  C 
ENDBRANCH 17 19
ENDBRANCH 13 15
ENDBRANCH 10 13
ENDBRANCH 7 9
ENDBRANCH 4 7
ENDBRANCH 1 3
BRANCH 1 22
ATOM     22  C   ALA E  11      -0.946  18.587   3.369  1.00 81.78 LIG 0.24  C 
ATOM     23  N   ALA E  12      -1.419  17.368   3.117  1.00 82.91 LIG-0.35  N 
ATOM     24 H    ALA E  12      -0.934  16.686   2.919  1.00 82.91 LIG 0.16  HD
ATOM     25 O    ALA E  11      -1.671  19.494   3.796  1.00 89.30 LIG-0.27  OA
BRANCH 23 26
ATOM     26  CA  ALA E  12      -2.852  17.113   3.168  1.00 61.10 LIG 0.17  C 
ATOM     27  CB  ALA E  12      -3.423  17.479   4.547  1.00 65.27 LIG 0.04  C 
BRANCH 26 28
ATOM     28  C   ALA E  12      -3.570  17.886   2.074  1.00 54.59 LIG 0.24  C 
ATOM     29  N   ALA E  13      -4.475  17.182   1.393  1.00 64.78 LIG-0.35  N 
ATOM     30 H    ALA E  13      -4.695  16.373   1.587  1.00 64.78 LIG 0.16  HD
ATOM     31 O    ALA E  12      -3.343  19.083   1.876  1.00 69.11 LIG-0.27  OA
BRANCH 29 32
ATOM     32  CA  ALA E  13      -5.179  17.734   0.247  1.00 54.23 LIG 0.17  C 
ATOM     33  CB  ALA E  13      -5.921  19.007   0.653  1.00 56.27 LIG 0.04  C 
BRANCH 32 34
ATOM     34  C   ALA E  13      -4.243  18.071  -0.900  1.00 65.29 LIG 0.24  C 
ATOM     35  N   ALA E  14      -4.698  17.768  -2.110  1.00 85.74 LIG-0.35  N 
ATOM     36 H    ALA E  14      -5.449  17.375  -2.250  1.00 85.74 LIG 0.16  HD
ATOM     37 O    ALA E  13      -3.168  18.643  -0.704  1.00 75.52 LIG-0.27  OA
BRANCH 35 38
ATOM     38  CA  ALA E  14      -3.960  18.077  -3.322  1.00 94.46 LIG 0.16  C 
ATOM     39  CB  ALA E  14      -4.288  17.070  -4.401  1.00106.12 LIG 0.04  C 
BRANCH 38 40
ATOM     40  C   ALA E  14      -4.282  19.490  -3.793  1.00 99.07 LIG 0.22  C 
ATOM     41 O    ALA E  14      -5.090  20.190  -3.182  1.00120.33 LIG-0.29  OA
ENDBRANCH 38 40
ENDBRANCH 35 38
ENDBRANCH 32 34
ENDBRANCH 29 32
ENDBRANCH 26 28
ENDBRANCH 23 26
ENDBRANCH 1 22
TORSDOF 13
ENDMDL
MODEL 73
USER: ADFR SOLUTION from run 169
USER: SCORE 4.028106 LL:  -2.548 LR:  -4.053 RR:   0.000 FEB:  -0.175
USER: RMSD 4.162401
USER: SEED 168
USER: STATUS no improvement in best in 106 clusters for 5 generations
USER: GENES 15
USER: genes 0 Translation |==|  0.62463 0.40304 0.63545
USER: genes 1 Rotation |==|  0.39231 0.35567 0.40646 0.95697
USER: genes 2 Torsion [CB]-CA--N-[C] |==|  0.45118
USER: genes 3 Torsion [N]-C--CA-[N] |==|  0.13030
USER: genes 4 Torsion [C]-CA--N-[C] |==|  0.13001
USER: genes 5 Torsion [N]-C--CA-[N] |==|  0.30872
USER: genes 6 Torsion [C]-CA--N-[C] |==|  0.69737
USER: genes 7 Torsion [N]-C--CA-[N] |==|  0.34943
USER: genes 8 Torsion [N]-CA--C-[N] |==|  0.75594
USER: genes 9 Torsion [C]-N--CA-[CB] |==|  0.16525
USER: genes 10 Torsion [N]-CA--C-[N] |==|  0.09162
USER: genes 11 Torsion [C]-N--CA-[CB] |==|  0.84909
USER: genes 12 Torsion [N]-CA--C-[N] |==|  0.39290
USER: genes 13 Torsion [C]-N--CA-[C] |==|  0.74963
USER: genes 14 Torsion [N]-CA--C-[O] |==|  0.01465
ROOT
ATOM      1  CA  ALA E  11       1.584  21.884   3.632  1.00 85.35 LIG 0.17  C 
ATOM      2  CB  ALA E  11       0.630  23.067   3.800  1.00 80.46 LIG 0.04  C 
ENDROOT
BRANCH 1 3
ATOM      3  N   ALA E  11       2.966  22.351   3.617  1.00 87.15 LIG-0.35  N 
ATOM      4  C   ALA E  10       3.970  21.498   3.832  1.00 62.15 LIG 0.24  C 
ATOM      5 O    ALA E  10       3.806  20.277   3.846  1.00 65.72 LIG-0.27  OA
ATOM      6 H    ALA E  11       3.064  23.192   3.464  1.00 87.15 LIG 0.16  HD
BRANCH 4 7
ATOM      7  CA  ALA E  10       5.358  22.086   4.060  1.00 66.45 LIG 0.17  C 
ATOM      8  CB  ALA E  10       6.322  21.003   4.541  1.00 58.63 LIG 0.04  C 
BRANCH 7 9
ATOM      9  N   ALA E  10       5.334  23.184   5.015  1.00 75.43 LIG-0.35  N 
ATOM     10  C   ALA E   9       4.690  23.118   6.178  1.00 82.21 LIG 0.24  C 
ATOM     11 O    ALA E   9       4.029  22.137   6.537  1.00 73.75 LIG-0.27  OA
ATOM     12 H    ALA E  10       5.773  23.877   4.758  1.00 75.43 LIG 0.16  HD
BRANCH 10 13
ATOM     13  CA  ALA E   9       4.780  24.354   7.064  1.00 87.65 LIG 0.17  C 
ATOM     14  CB  ALA E   9       5.274  23.991   8.463  1.00 72.21 LIG 0.04  C 
BRANCH 13 15
ATOM     15  N   ALA E   9       3.460  24.971   7.108  1.00 84.24 LIG-0.35  N 
ATOM     16 H    ALA E   9       2.878  24.525   7.558  1.00 84.24 LIG 0.16  HD
ATOM     17  C   ALA E   8       3.195  26.120   6.501  1.00 61.40 LIG 0.26  C 
ATOM     18 O    ALA E   8       4.060  26.791   5.942  1.00 66.21 LIG-0.27  OA
BRANCH 17 19
ATOM     19  CA  ALA E   8       1.746  26.595   6.558  1.00 67.03 LIG 0.40  C 
ATOM     20  N   ALA E   8       1.669  27.982   7.107  1.00 60.26 LIG 0.61  N 
ATOM     21  CB  ALA E   8       1.106  26.534   5.176  1.00 64.64 LIG 0.06  C 
ENDBRANCH 17 19
ENDBRANCH 13 15
ENDBRANCH 10 13
ENDBRANCH 7 9
ENDBRANCH 4 7
ENDBRANCH 1 3
BRANCH 1 22
ATOM     22  C   ALA E  11       1.244  21.107   2.366  1.00 81.78 LIG 0.24  C 
ATOM     23  N   ALA E  12       0.803  21.802   1.319  1.00 82.91 LIG-0.35  N 
ATOM     24 H    ALA E  12       0.801  22.661   1.266  1.00 82.91 LIG 0.16  HD
ATOM     25 O    ALA E  11       1.365  19.877   2.330  1.00 89.30 LIG-0.27  OA
BRANCH 23 26
ATOM     26  CA  ALA E  12       0.277  21.111   0.149  1.00 61.10 LIG 0.17  C 
ATOM     27  CB  ALA E  12      -0.928  20.237   0.530  1.00 65.27 LIG 0.04  C 
BRANCH 26 28
ATOM     28  C   ALA E  12      -0.110  22.109  -0.930  1.00 54.59 LIG 0.24  C 
ATOM     29  N   ALA E  13       0.651  23.202  -0.979  1.00 64.78 LIG-0.35  N 
ATOM     30 H    ALA E  13       1.348  23.321  -0.490  1.00 64.78 LIG 0.16  HD
ATOM     31 O    ALA E  12      -1.036  21.882  -1.714  1.00 69.11 LIG-0.27  OA
BRANCH 29 32
ATOM     32  CA  ALA E  13       0.359  24.306  -1.880  1.00 54.23 LIG 0.17  C 
ATOM     33  CB  ALA E  13       0.247  23.792  -3.316  1.00 56.27 LIG 0.04  C 
BRANCH 32 34
ATOM     34  C   ALA E  13      -0.935  25.017  -1.525  1.00 65.29 LIG 0.24  C 
ATOM     35  N   ALA E  14      -0.912  26.337  -1.665  1.00 85.74 LIG-0.35  N 
ATOM     36 H    ALA E  14      -0.213  26.777  -1.902  1.00 85.74 LIG 0.16  HD
ATOM     37 O    ALA E  13      -1.942  24.388  -1.192  1.00 75.52 LIG-0.27  OA
BRANCH 35 38
ATOM     38  CA  ALA E  14      -2.079  27.168  -1.428  1.00 94.46 LIG 0.16  C 
ATOM     39  CB  ALA E  14      -1.657  28.515  -0.888  1.00106.12 LIG 0.04  C 
BRANCH 38 40
ATOM     40  C   ALA E  14      -2.881  27.335  -2.714  1.00 99.07 LIG 0.22  C 
ATOM     41 O    ALA E  14      -2.568  26.724  -3.736  1.00120.33 LIG-0.29  OA
ENDBRANCH 38 40
ENDBRANCH 35 38
ENDBRANCH 32 34
ENDBRANCH 29 32
ENDBRANCH 26 28
ENDBRANCH 23 26
ENDBRANCH 1 22
TORSDOF 13
ENDMDL
MODEL 74
USER: ADFR SOLUTION from run 103
USER: SCORE 4.455475 LL:  -1.821 LR:  -4.055 RR:   0.000 FEB:  -0.177
USER: RMSD 4.216545
USER: SEED 102
USER: STATUS no improvement in best in 76 clusters for 5 generations
USER: GENES 15
USER: genes 0 Translation |==|  0.61561 0.35357 0.55697
USER: genes 1 Rotation |==|  0.80973 0.64595 0.56119 0.85920
USER: genes 2 Torsion [CB]-CA--N-[C] |==|  0.79200
USER: genes 3 Torsion [N]-C--CA-[N] |==|  0.87298
USER: genes 4 Torsion [C]-CA--N-[C] |==|  0.80874
USER: genes 5 Torsion [N]-C--CA-[N] |==|  0.41042
USER: genes 6 Torsion [C]-CA--N-[C] |==|  0.86021
USER: genes 7 Torsion [N]-C--CA-[N] |==|  0.07236
USER: genes 8 Torsion [N]-CA--C-[N] |==|  0.44316
USER: genes 9 Torsion [C]-N--CA-[CB] |==|  0.20342
USER: genes 10 Torsion [N]-CA--C-[N] |==|  0.55681
USER: genes 11 Torsion [C]-N--CA-[CB] |==|  0.19619
USER: genes 12 Torsion [N]-CA--C-[N] |==|  0.09206
USER: genes 13 Torsion [C]-N--CA-[C] |==|  0.58043
USER: genes 14 Torsion [N]-CA--C-[O] |==|  0.95874
ROOT
ATOM      1  CA  ALA E  11       1.381  20.993   2.219  1.00 85.35 LIG 0.17  C 
ATOM      2  CB  ALA E  11       1.421  19.682   3.006  1.00 80.46 LIG 0.04  C 
ENDROOT
BRANCH 1 3
ATOM      3  N   ALA E  11       2.104  22.034   2.942  1.00 87.15 LIG-0.35  N 
ATOM      4  C   ALA E  10       1.564  22.607   4.021  1.00 62.15 LIG 0.24  C 
ATOM      5 O    ALA E  10       0.556  22.160   4.569  1.00 65.72 LIG-0.27  OA
ATOM      6 H    ALA E  11       2.876  22.232   2.619  1.00 87.15 LIG 0.16  HD
BRANCH 4 7
ATOM      7  CA  ALA E  10       2.247  23.854   4.572  1.00 66.45 LIG 0.17  C 
ATOM      8  CB  ALA E  10       1.914  25.068   3.707  1.00 58.63 LIG 0.04  C 
BRANCH 7 9
ATOM      9  N   ALA E  10       3.691  23.691   4.658  1.00 75.43 LIG-0.35  N 
ATOM     10  C   ALA E   9       4.278  22.863   5.520  1.00 82.21 LIG 0.24  C 
ATOM     11 O    ALA E   9       3.655  22.186   6.345  1.00 73.75 LIG-0.27  OA
ATOM     12 H    ALA E  10       4.129  24.178   4.100  1.00 75.43 LIG 0.16  HD
BRANCH 10 13
ATOM     13  CA  ALA E   9       5.798  22.807   5.464  1.00 87.65 LIG 0.17  C 
ATOM     14  CB  ALA E   9       6.272  21.737   4.481  1.00 72.21 LIG 0.04  C 
BRANCH 13 15
ATOM     15  N   ALA E   9       6.287  22.546   6.812  1.00 84.24 LIG-0.35  N 
ATOM     16 H    ALA E   9       6.850  21.898   6.862  1.00 84.24 LIG 0.16  HD
ATOM     17  C   ALA E   8       5.888  23.254   7.859  1.00 61.40 LIG 0.26  C 
ATOM     18 O    ALA E   8       5.155  24.236   7.757  1.00 66.21 LIG-0.27  OA
BRANCH 17 19
ATOM     19  CA  ALA E   8       6.415  22.806   9.219  1.00 67.03 LIG 0.40  C 
ATOM     20  N   ALA E   8       7.718  22.091   9.069  1.00 60.26 LIG 0.61  N 
ATOM     21  CB  ALA E   8       6.568  23.999  10.156  1.00 64.64 LIG 0.06  C 
ENDBRANCH 17 19
ENDBRANCH 13 15
ENDBRANCH 10 13
ENDBRANCH 7 9
ENDBRANCH 4 7
ENDBRANCH 1 3
BRANCH 1 22
ATOM     22  C   ALA E  11      -0.061  21.402   1.947  1.00 81.78 LIG 0.24  C 
ATOM     23  N   ALA E  12      -0.705  20.770   0.967  1.00 82.91 LIG-0.35  N 
ATOM     24 H    ALA E  12      -0.407  20.077   0.552  1.00 82.91 LIG 0.16  HD
ATOM     25 O    ALA E  11      -0.598  22.297   2.611  1.00 89.30 LIG-0.27  OA
BRANCH 23 26
ATOM     26  CA  ALA E  12      -2.011  21.240   0.525  1.00 61.10 LIG 0.17  C 
ATOM     27  CB  ALA E  12      -1.877  22.538  -0.286  1.00 65.27 LIG 0.04  C 
BRANCH 26 28
ATOM     28  C   ALA E  12      -2.712  20.170  -0.296  1.00 54.59 LIG 0.24  C 
ATOM     29  N   ALA E  13      -3.685  20.623  -1.088  1.00 64.78 LIG-0.35  N 
ATOM     30 H    ALA E  13      -3.870  21.456  -1.188  1.00 64.78 LIG 0.16  HD
ATOM     31 O    ALA E  12      -2.364  18.988  -0.245  1.00 69.11 LIG-0.27  OA
BRANCH 29 32
ATOM     32  CA  ALA E  13      -4.527  19.726  -1.864  1.00 54.23 LIG 0.17  C 
ATOM     33  CB  ALA E  13      -5.468  18.959  -0.934  1.00 56.27 LIG 0.04  C 
BRANCH 32 34
ATOM     34  C   ALA E  13      -5.368  20.465  -2.889  1.00 65.29 LIG 0.24  C 
ATOM     35  N   ALA E  14      -4.802  21.545  -3.415  1.00 85.74 LIG-0.35  N 
ATOM     36 H    ALA E  14      -4.030  21.840  -3.176  1.00 85.74 LIG 0.16  HD
ATOM     37 O    ALA E  13      -6.472  20.040  -3.241  1.00 75.52 LIG-0.27  OA
BRANCH 35 38
ATOM     38  CA  ALA E  14      -5.439  22.335  -4.453  1.00 94.46 LIG 0.16  C 
ATOM     39  CB  ALA E  14      -6.347  23.372  -3.834  1.00106.12 LIG 0.04  C 
BRANCH 38 40
ATOM     40  C   ALA E  14      -4.387  23.002  -5.333  1.00 99.07 LIG 0.22  C 
ATOM     41 O    ALA E  14      -3.212  23.066  -4.971  1.00120.33 LIG-0.29  OA
ENDBRANCH 38 40
ENDBRANCH 35 38
ENDBRANCH 32 34
ENDBRANCH 29 32
ENDBRANCH 26 28
ENDBRANCH 23 26
ENDBRANCH 1 22
TORSDOF 13
ENDMDL
MODEL 75
USER: ADFR SOLUTION from run 103
USER: SCORE 5.238004 LL:  -2.399 LR:  -4.047 RR:   0.000 FEB:  -0.170
USER: RMSD 5.133004
USER: SEED 102
USER: STATUS no improvement in best in 76 clusters for 5 generations
USER: GENES 15
USER: genes 0 Translation |==|  0.61561 0.35357 0.55697
USER: genes 1 Rotation |==|  0.80973 0.64595 0.56119 0.85920
USER: genes 2 Torsion [CB]-CA--N-[C] |==|  0.79200
USER: genes 3 Torsion [N]-C--CA-[N] |==|  0.87298
USER: genes 4 Torsion [C]-CA--N-[C] |==|  0.80874
USER: genes 5 Torsion [N]-C--CA-[N] |==|  0.41042
USER: genes 6 Torsion [C]-CA--N-[C] |==|  0.86021
USER: genes 7 Torsion [N]-C--CA-[N] |==|  0.07236
USER: genes 8 Torsion [N]-CA--C-[N] |==|  0.53149
USER: genes 9 Torsion [C]-N--CA-[CB] |==|  0.51111
USER: genes 10 Torsion [N]-CA--C-[N] |==|  0.40795
USER: genes 11 Torsion [C]-N--CA-[CB] |==|  0.84739
USER: genes 12 Torsion [N]-CA--C-[N] |==|  0.39981
USER: genes 13 Torsion [C]-N--CA-[C] |==|  0.75851
USER: genes 14 Torsion [N]-CA--C-[O] |==|  0.98372
ROOT
ATOM      1  CA  ALA E  11       1.381  20.993   2.219  1.00 85.35 LIG 0.17  C 
ATOM      2  CB  ALA E  11       1.421  19.682   3.006  1.00 80.46 LIG 0.04  C 
ENDROOT
BRANCH 1 3
ATOM      3  N   ALA E  11       2.104  22.034   2.942  1.00 87.15 LIG-0.35  N 
ATOM      4  C   ALA E  10       1.564  22.607   4.021  1.00 62.15 LIG 0.24  C 
ATOM      5 O    ALA E  10       0.556  22.160   4.569  1.00 65.72 LIG-0.27  OA
ATOM      6 H    ALA E  11       2.876  22.232   2.619  1.00 87.15 LIG 0.16  HD
BRANCH 4 7
ATOM      7  CA  ALA E  10       2.247  23.854   4.572  1.00 66.45 LIG 0.17  C 
ATOM      8  CB  ALA E  10       1.914  25.068   3.707  1.00 58.63 LIG 0.04  C 
BRANCH 7 9
ATOM      9  N   ALA E  10       3.691  23.691   4.658  1.00 75.43 LIG-0.35  N 
ATOM     10  C   ALA E   9       4.278  22.863   5.520  1.00 82.21 LIG 0.24  C 
ATOM     11 O    ALA E   9       3.655  22.186   6.345  1.00 73.75 LIG-0.27  OA
ATOM     12 H    ALA E  10       4.129  24.178   4.100  1.00 75.43 LIG 0.16  HD
BRANCH 10 13
ATOM     13  CA  ALA E   9       5.798  22.807   5.464  1.00 87.65 LIG 0.17  C 
ATOM     14  CB  ALA E   9       6.272  21.737   4.481  1.00 72.21 LIG 0.04  C 
BRANCH 13 15
ATOM     15  N   ALA E   9       6.287  22.546   6.812  1.00 84.24 LIG-0.35  N 
ATOM     16 H    ALA E   9       6.850  21.898   6.862  1.00 84.24 LIG 0.16  HD
ATOM     17  C   ALA E   8       5.888  23.254   7.859  1.00 61.40 LIG 0.26  C 
ATOM     18 O    ALA E   8       5.155  24.236   7.757  1.00 66.21 LIG-0.27  OA
BRANCH 17 19
ATOM     19  CA  ALA E   8       6.415  22.806   9.219  1.00 67.03 LIG 0.40  C 
ATOM     20  N   ALA E   8       7.718  22.091   9.069  1.00 60.26 LIG 0.61  N 
ATOM     21  CB  ALA E   8       6.568  23.999  10.156  1.00 64.64 LIG 0.06  C 
ENDBRANCH 17 19
ENDBRANCH 13 15
ENDBRANCH 10 13
ENDBRANCH 7 9
ENDBRANCH 4 7
ENDBRANCH 1 3
BRANCH 1 22
ATOM     22  C   ALA E  11      -0.061  21.402   1.947  1.00 81.78 LIG 0.24  C 
ATOM     23  N   ALA E  12      -0.894  20.461   1.504  1.00 82.91 LIG-0.35  N 
ATOM     24 H    ALA E  12      -0.708  19.622   1.465  1.00 82.91 LIG 0.16  HD
ATOM     25 O    ALA E  11      -0.429  22.569   2.124  1.00 89.30 LIG-0.27  OA
BRANCH 23 26
ATOM     26  CA  ALA E  12      -2.226  20.821   1.039  1.00 61.10 LIG 0.17  C 
ATOM     27  CB  ALA E  12      -3.033  19.566   0.673  1.00 65.27 LIG 0.04  C 
BRANCH 26 28
ATOM     28  C   ALA E  12      -2.958  21.633   2.096  1.00 54.59 LIG 0.24  C 
ATOM     29  N   ALA E  13      -3.793  22.554   1.615  1.00 64.78 LIG-0.35  N 
ATOM     30 H    ALA E  13      -3.965  22.651   0.778  1.00 64.78 LIG 0.16  HD
ATOM     31 O    ALA E  12      -2.803  21.411   3.300  1.00 69.11 LIG-0.27  OA
BRANCH 29 32
ATOM     32  CA  ALA E  13      -4.494  23.488   2.481  1.00 54.23 LIG 0.17  C 
ATOM     33  CB  ALA E  13      -5.278  22.723   3.547  1.00 56.27 LIG 0.04  C 
BRANCH 32 34
ATOM     34  C   ALA E  13      -3.550  24.449   3.180  1.00 65.29 LIG 0.24  C 
ATOM     35  N   ALA E  14      -4.016  25.683   3.344  1.00 85.74 LIG-0.35  N 
ATOM     36 H    ALA E  14      -4.779  25.944   3.047  1.00 85.74 LIG 0.16  HD
ATOM     37 O    ALA E  13      -2.458  24.075   3.614  1.00 75.52 LIG-0.27  OA
BRANCH 35 38
ATOM     38  CA  ALA E  14      -3.271  26.713   4.045  1.00 94.46 LIG 0.16  C 
ATOM     39  CB  ALA E  14      -3.627  28.076   3.498  1.00106.12 LIG 0.04  C 
BRANCH 38 40
ATOM     40  C   ALA E  14      -3.554  26.646   5.541  1.00 99.07 LIG 0.22  C 
ATOM     41 O    ALA E  14      -4.402  25.873   5.988  1.00120.33 LIG-0.29  OA
ENDBRANCH 38 40
ENDBRANCH 35 38
ENDBRANCH 32 34
ENDBRANCH 29 32
ENDBRANCH 26 28
ENDBRANCH 23 26
ENDBRANCH 1 22
TORSDOF 13
ENDMDL
MODEL 76
USER: ADFR SOLUTION from run 170
USER: SCORE 5.044963 LL:  -3.001 LR:  -4.054 RR:   0.000 FEB:  -0.176
USER: RMSD 4.723541
USER: SEED 169
USER: STATUS no improvement in best in 65 clusters for 5 generations
USER: GENES 15
USER: genes 0 Translation |==|  0.57797 0.23219 0.60562
USER: genes 1 Rotation |==|  0.76661 0.77394 0.57478 0.81350
USER: genes 2 Torsion [CB]-CA--N-[C] |==|  0.14948
USER: genes 3 Torsion [N]-C--CA-[N] |==|  0.43889
USER: genes 4 Torsion [C]-CA--N-[C] |==|  0.63317
USER: genes 5 Torsion [N]-C--CA-[N] |==|  0.17036
USER: genes 6 Torsion [C]-CA--N-[C] |==|  0.78810
USER: genes 7 Torsion [N]-C--CA-[N] |==|  0.33503
USER: genes 8 Torsion [N]-CA--C-[N] |==|  0.52778
USER: genes 9 Torsion [C]-N--CA-[CB] |==|  0.86332
USER: genes 10 Torsion [N]-CA--C-[N] |==|  0.83989
USER: genes 11 Torsion [C]-N--CA-[CB] |==|  0.16434
USER: genes 12 Torsion [N]-CA--C-[N] |==|  0.07985
USER: genes 13 Torsion [C]-N--CA-[C] |==|  0.56624
USER: genes 14 Torsion [N]-CA--C-[O] |==|  0.99223
ROOT
ATOM      1  CA  ALA E  11       0.534  18.808   3.095  1.00 85.35 LIG 0.17  C 
ATOM      2  CB  ALA E  11       1.388  17.741   3.783  1.00 80.46 LIG 0.04  C 
ENDROOT
BRANCH 1 3
ATOM      3  N   ALA E  11       0.949  20.138   3.530  1.00 87.15 LIG-0.35  N 
ATOM      4  C   ALA E  10       2.226  20.514   3.431  1.00 62.15 LIG 0.24  C 
ATOM      5 O    ALA E  10       3.058  19.861   2.799  1.00 65.72 LIG-0.27  OA
ATOM      6 H    ALA E  11       0.317  20.632   3.841  1.00 87.15 LIG 0.16  HD
BRANCH 4 7
ATOM      7  CA  ALA E  10       2.638  21.803   4.134  1.00 66.45 LIG 0.17  C 
ATOM      8  CB  ALA E  10       2.229  23.016   3.299  1.00 58.63 LIG 0.04  C 
BRANCH 7 9
ATOM      9  N   ALA E  10       4.068  21.846   4.398  1.00 75.43 LIG-0.35  N 
ATOM     10  C   ALA E   9       4.577  22.179   5.582  1.00 82.21 LIG 0.24  C 
ATOM     11 O    ALA E   9       3.886  22.513   6.551  1.00 73.75 LIG-0.27  OA
ATOM     12 H    ALA E  10       4.553  21.637   3.719  1.00 75.43 LIG 0.16  HD
BRANCH 10 13
ATOM     13  CA  ALA E   9       6.096  22.159   5.687  1.00 87.65 LIG 0.17  C 
ATOM     14  CB  ALA E   9       6.551  22.468   7.112  1.00 72.21 LIG 0.04  C 
BRANCH 13 15
ATOM     15  N   ALA E   9       6.624  23.130   4.737  1.00 84.24 LIG-0.35  N 
ATOM     16 H    ALA E   9       6.894  23.863   5.096  1.00 84.24 LIG 0.16  HD
ATOM     17  C   ALA E   8       6.675  22.889   3.434  1.00 61.40 LIG 0.26  C 
ATOM     18 O    ALA E   8       6.373  21.802   2.946  1.00 66.21 LIG-0.27  OA
BRANCH 17 19
ATOM     19  CA  ALA E   8       7.168  24.034   2.554  1.00 67.03 LIG 0.40  C 
ATOM     20  N   ALA E   8       8.385  23.627   1.791  1.00 60.26 LIG 0.61  N 
ATOM     21  CB  ALA E   8       6.070  24.489   1.599  1.00 64.64 LIG 0.06  C 
ENDBRANCH 17 19
ENDBRANCH 13 15
ENDBRANCH 10 13
ENDBRANCH 7 9
ENDBRANCH 4 7
ENDBRANCH 1 3
BRANCH 1 22
ATOM     22  C   ALA E  11      -0.943  18.564   3.376  1.00 81.78 LIG 0.24  C 
ATOM     23  N   ALA E  12      -1.402  17.324   3.217  1.00 82.91 LIG-0.35  N 
ATOM     24 H    ALA E  12      -0.909  16.633   3.076  1.00 82.91 LIG 0.16  HD
ATOM     25 O    ALA E  11      -1.680  19.494   3.725  1.00 89.30 LIG-0.27  OA
BRANCH 23 26
ATOM     26  CA  ALA E  12      -2.833  17.059   3.277  1.00 61.10 LIG 0.17  C 
ATOM     27  CB  ALA E  12      -3.456  17.706   4.524  1.00 65.27 LIG 0.04  C 
BRANCH 26 28
ATOM     28  C   ALA E  12      -3.522  17.561   2.018  1.00 54.59 LIG 0.24  C 
ATOM     29  N   ALA E  13      -3.355  18.860   1.770  1.00 64.78 LIG-0.35  N 
ATOM     30 H    ALA E  13      -2.848  19.374   2.237  1.00 64.78 LIG 0.16  HD
ATOM     31 O    ALA E  12      -4.148  16.797   1.279  1.00 69.11 LIG-0.27  OA
BRANCH 29 32
ATOM     32  CA  ALA E  13      -4.027  19.527   0.667  1.00 54.23 LIG 0.17  C 
ATOM     33  CB  ALA E  13      -5.543  19.396   0.823  1.00 56.27 LIG 0.04  C 
BRANCH 32 34
ATOM     34  C   ALA E  13      -3.682  21.004   0.587  1.00 65.29 LIG 0.24  C 
ATOM     35  N   ALA E  14      -2.482  21.331   1.051  1.00 85.74 LIG-0.35  N 
ATOM     36 H    ALA E  14      -1.942  20.767   1.410  1.00 85.74 LIG 0.16  HD
ATOM     37 O    ALA E  13      -4.451  21.815   0.066  1.00 75.52 LIG-0.27  OA
BRANCH 35 38
ATOM     38  CA  ALA E  14      -1.966  22.687   0.996  1.00 94.46 LIG 0.16  C 
ATOM     39  CB  ALA E  14      -2.517  23.501   2.145  1.00106.12 LIG 0.04  C 
BRANCH 38 40
ATOM     40  C   ALA E  14      -0.442  22.676   1.032  1.00 99.07 LIG 0.22  C 
ATOM     41 O    ALA E  14       0.178  21.619   1.150  1.00120.33 LIG-0.29  OA
ENDBRANCH 38 40
ENDBRANCH 35 38
ENDBRANCH 32 34
ENDBRANCH 29 32
ENDBRANCH 26 28
ENDBRANCH 23 26
ENDBRANCH 1 22
TORSDOF 13
ENDMDL
MODEL 77
USER: ADFR SOLUTION from run 140
USER: SCORE 4.935848 LL:  -2.827 LR:  -4.055 RR:   0.000 FEB:  -0.177
USER: RMSD 5.715529
USER: SEED 139
USER: STATUS no improvement in best in 55 clusters for 5 generations
USER: GENES 15
USER: genes 0 Translation |==|  0.56293 0.29519 0.60104
USER: genes 1 Rotation |==|  0.41727 0.53257 0.42513 0.98630
USER: genes 2 Torsion [CB]-CA--N-[C] |==|  0.23678
USER: genes 3 Torsion [N]-C--CA-[N] |==|  0.46111
USER: genes 4 Torsion [C]-CA--N-[C] |==|  0.83223
USER: genes 5 Torsion [N]-C--CA-[N] |==|  0.23090
USER: genes 6 Torsion [C]-CA--N-[C] |==|  0.80463
USER: genes 7 Torsion [N]-C--CA-[N] |==|  0.34685
USER: genes 8 Torsion [N]-CA--C-[N] |==|  0.88911
USER: genes 9 Torsion [C]-N--CA-[CB] |==|  0.80000
USER: genes 10 Torsion [N]-CA--C-[N] |==|  0.16763
USER: genes 11 Torsion [C]-N--CA-[CB] |==|  0.84752
USER: genes 12 Torsion [N]-CA--C-[N] |==|  0.38711
USER: genes 13 Torsion [C]-N--CA-[C] |==|  0.16787
USER: genes 14 Torsion [N]-CA--C-[O] |==|  0.10881
ROOT
ATOM      1  CA  ALA E  11       0.196  19.942   3.013  1.00 85.35 LIG 0.17  C 
ATOM      2  CB  ALA E  11      -0.305  21.014   3.983  1.00 80.46 LIG 0.04  C 
ENDROOT
BRANCH 1 3
ATOM      3  N   ALA E  11       1.301  20.464   2.216  1.00 87.15 LIG-0.35  N 
ATOM      4  C   ALA E  10       2.551  20.421   2.683  1.00 62.15 LIG 0.24  C 
ATOM      5 O    ALA E  10       2.857  19.774   3.685  1.00 65.72 LIG-0.27  OA
ATOM      6 H    ALA E  11       1.077  20.787   1.451  1.00 87.15 LIG 0.16  HD
BRANCH 4 7
ATOM      7  CA  ALA E  10       3.614  21.208   1.925  1.00 66.45 LIG 0.17  C 
ATOM      8  CB  ALA E  10       3.920  20.535   0.588  1.00 58.63 LIG 0.04  C 
BRANCH 7 9
ATOM      9  N   ALA E  10       4.840  21.350   2.697  1.00 75.43 LIG-0.35  N 
ATOM     10  C   ALA E   9       4.885  21.961   3.879  1.00 82.21 LIG 0.24  C 
ATOM     11 O    ALA E   9       3.903  22.491   4.411  1.00 73.75 LIG-0.27  OA
ATOM     12 H    ALA E  10       5.530  21.004   2.319  1.00 75.43 LIG 0.16  HD
BRANCH 10 13
ATOM     13  CA  ALA E   9       6.249  22.008   4.556  1.00 87.65 LIG 0.17  C 
ATOM     14  CB  ALA E   9       6.105  22.129   6.071  1.00 72.21 LIG 0.04  C 
BRANCH 13 15
ATOM     15  N   ALA E   9       6.987  23.134   3.999  1.00 84.24 LIG-0.35  N 
ATOM     16 H    ALA E   9       7.095  23.789   4.546  1.00 84.24 LIG 0.16  HD
ATOM     17  C   ALA E   8       7.447  23.135   2.755  1.00 61.40 LIG 0.26  C 
ATOM     18 O    ALA E   8       7.367  22.154   2.018  1.00 66.21 LIG-0.27  OA
BRANCH 17 19
ATOM     19  CA  ALA E   8       8.121  24.420   2.284  1.00 67.03 LIG 0.40  C 
ATOM     20  N   ALA E   8       9.498  24.138   1.781  1.00 60.26 LIG 0.61  N 
ATOM     21  CB  ALA E   8       7.288  25.097   1.202  1.00 64.64 LIG 0.06  C 
ENDBRANCH 17 19
ENDBRANCH 13 15
ENDBRANCH 10 13
ENDBRANCH 7 9
ENDBRANCH 4 7
ENDBRANCH 1 3
BRANCH 1 22
ATOM     22  C   ALA E  11      -0.947  19.454   2.131  1.00 81.78 LIG 0.24  C 
ATOM     23  N   ALA E  12      -1.250  20.182   1.058  1.00 82.91 LIG-0.35  N 
ATOM     24 H    ALA E  12      -0.781  20.842   0.765  1.00 82.91 LIG 0.16  HD
ATOM     25 O    ALA E  11      -1.570  18.425   2.420  1.00 89.30 LIG-0.27  OA
BRANCH 23 26
ATOM     26  CA  ALA E  12      -2.448  19.885   0.284  1.00 61.10 LIG 0.17  C 
ATOM     27  CB  ALA E  12      -2.273  18.583  -0.512  1.00 65.27 LIG 0.04  C 
BRANCH 26 28
ATOM     28  C   ALA E  12      -3.661  19.791   1.196  1.00 54.59 LIG 0.24  C 
ATOM     29  N   ALA E  13      -3.934  20.903   1.878  1.00 64.78 LIG-0.35  N 
ATOM     30 H    ALA E  13      -3.508  21.644   1.775  1.00 64.78 LIG 0.16  HD
ATOM     31 O    ALA E  12      -4.346  18.767   1.252  1.00 69.11 LIG-0.27  OA
BRANCH 29 32
ATOM     32  CA  ALA E  13      -4.994  20.958   2.872  1.00 54.23 LIG 0.17  C 
ATOM     33  CB  ALA E  13      -6.316  20.507   2.250  1.00 56.27 LIG 0.04  C 
BRANCH 32 34
ATOM     34  C   ALA E  13      -4.706  20.077   4.074  1.00 65.29 LIG 0.24  C 
ATOM     35  N   ALA E  14      -5.028  20.601   5.251  1.00 85.74 LIG-0.35  N 
ATOM     36 H    ALA E  14      -5.342  21.395   5.346  1.00 85.74 LIG 0.16  HD
ATOM     37 O    ALA E  13      -4.264  18.933   3.940  1.00 75.52 LIG-0.27  OA
BRANCH 35 38
ATOM     38  CA  ALA E  14      -4.877  19.873   6.499  1.00 94.46 LIG 0.16  C 
ATOM     39  CB  ALA E  14      -5.750  18.639   6.490  1.00106.12 LIG 0.04  C 
BRANCH 38 40
ATOM     40  C   ALA E  14      -3.417  19.494   6.718  1.00 99.07 LIG 0.22  C 
ATOM     41 O    ALA E  14      -2.512  20.276   6.424  1.00120.33 LIG-0.29  OA
ENDBRANCH 38 40
ENDBRANCH 35 38
ENDBRANCH 32 34
ENDBRANCH 29 32
ENDBRANCH 26 28
ENDBRANCH 23 26
ENDBRANCH 1 22
TORSDOF 13
ENDMDL
MODEL 78
USER: ADFR SOLUTION from run 103
USER: SCORE 5.471264 LL:  -2.525 LR:  -4.046 RR:   0.000 FEB:  -0.169
USER: RMSD 4.561363
USER: SEED 102
USER: STATUS no improvement in best in 76 clusters for 5 generations
USER: GENES 15
USER: genes 0 Translation |==|  0.61561 0.35357 0.55697
USER: genes 1 Rotation |==|  0.80973 0.64595 0.56119 0.85920
USER: genes 2 Torsion [CB]-CA--N-[C] |==|  0.79200
USER: genes 3 Torsion [N]-C--CA-[N] |==|  0.87298
USER: genes 4 Torsion [C]-CA--N-[C] |==|  0.80874
USER: genes 5 Torsion [N]-C--CA-[N] |==|  0.41042
USER: genes 6 Torsion [C]-CA--N-[C] |==|  0.86021
USER: genes 7 Torsion [N]-C--CA-[N] |==|  0.07236
USER: genes 8 Torsion [N]-CA--C-[N] |==|  0.15382
USER: genes 9 Torsion [C]-N--CA-[CB] |==|  0.16852
USER: genes 10 Torsion [N]-CA--C-[N] |==|  0.12259
USER: genes 11 Torsion [C]-N--CA-[CB] |==|  0.53270
USER: genes 12 Torsion [N]-CA--C-[N] |==|  0.42794
USER: genes 13 Torsion [C]-N--CA-[C] |==|  0.75306
USER: genes 14 Torsion [N]-CA--C-[O] |==|  0.00533
ROOT
ATOM      1  CA  ALA E  11       1.381  20.993   2.219  1.00 85.35 LIG 0.17  C 
ATOM      2  CB  ALA E  11       1.421  19.682   3.006  1.00 80.46 LIG 0.04  C 
ENDROOT
BRANCH 1 3
ATOM      3  N   ALA E  11       2.104  22.034   2.942  1.00 87.15 LIG-0.35  N 
ATOM      4  C   ALA E  10       1.564  22.607   4.021  1.00 62.15 LIG 0.24  C 
ATOM      5 O    ALA E  10       0.556  22.160   4.569  1.00 65.72 LIG-0.27  OA
ATOM      6 H    ALA E  11       2.876  22.232   2.619  1.00 87.15 LIG 0.16  HD
BRANCH 4 7
ATOM      7  CA  ALA E  10       2.247  23.854   4.572  1.00 66.45 LIG 0.17  C 
ATOM      8  CB  ALA E  10       1.914  25.068   3.707  1.00 58.63 LIG 0.04  C 
BRANCH 7 9
ATOM      9  N   ALA E  10       3.691  23.691   4.658  1.00 75.43 LIG-0.35  N 
ATOM     10  C   ALA E   9       4.278  22.863   5.520  1.00 82.21 LIG 0.24  C 
ATOM     11 O    ALA E   9       3.655  22.186   6.345  1.00 73.75 LIG-0.27  OA
ATOM     12 H    ALA E  10       4.129  24.178   4.100  1.00 75.43 LIG 0.16  HD
BRANCH 10 13
ATOM     13  CA  ALA E   9       5.798  22.807   5.464  1.00 87.65 LIG 0.17  C 
ATOM     14  CB  ALA E   9       6.272  21.737   4.481  1.00 72.21 LIG 0.04  C 
BRANCH 13 15
ATOM     15  N   ALA E   9       6.287  22.546   6.812  1.00 84.24 LIG-0.35  N 
ATOM     16 H    ALA E   9       6.850  21.898   6.862  1.00 84.24 LIG 0.16  HD
ATOM     17  C   ALA E   8       5.888  23.254   7.859  1.00 61.40 LIG 0.26  C 
ATOM     18 O    ALA E   8       5.155  24.236   7.757  1.00 66.21 LIG-0.27  OA
BRANCH 17 19
ATOM     19  CA  ALA E   8       6.415  22.806   9.219  1.00 67.03 LIG 0.40  C 
ATOM     20  N   ALA E   8       7.718  22.091   9.069  1.00 60.26 LIG 0.61  N 
ATOM     21  CB  ALA E   8       6.568  23.999  10.156  1.00 64.64 LIG 0.06  C 
ENDBRANCH 17 19
ENDBRANCH 13 15
ENDBRANCH 10 13
ENDBRANCH 7 9
ENDBRANCH 4 7
ENDBRANCH 1 3
BRANCH 1 22
ATOM     22  C   ALA E  11      -0.061  21.402   1.947  1.00 81.78 LIG 0.24  C 
ATOM     23  N   ALA E  12      -0.264  22.550   1.303  1.00 82.91 LIG-0.35  N 
ATOM     24 H    ALA E  12       0.355  23.020   0.934  1.00 82.91 LIG 0.16  HD
ATOM     25 O    ALA E  11      -0.999  20.691   2.327  1.00 89.30 LIG-0.27  OA
BRANCH 23 26
ATOM     26  CA  ALA E  12      -1.609  23.095   1.183  1.00 61.10 LIG 0.17  C 
ATOM     27  CB  ALA E  12      -2.208  23.380   2.569  1.00 65.27 LIG 0.04  C 
BRANCH 26 28
ATOM     28  C   ALA E  12      -1.599  24.359   0.339  1.00 54.59 LIG 0.24  C 
ATOM     29  N   ALA E  13      -0.861  24.285  -0.769  1.00 64.78 LIG-0.35  N 
ATOM     30 H    ALA E  13      -0.468  23.567  -1.035  1.00 64.78 LIG 0.16  HD
ATOM     31 O    ALA E  12      -2.261  25.351   0.656  1.00 69.11 LIG-0.27  OA
BRANCH 29 32
ATOM     32  CA  ALA E  13      -0.655  25.433  -1.637  1.00 54.23 LIG 0.17  C 
ATOM     33  CB  ALA E  13      -0.025  24.984  -2.957  1.00 56.27 LIG 0.04  C 
BRANCH 32 34
ATOM     34  C   ALA E  13      -1.949  26.163  -1.949  1.00 65.29 LIG 0.24  C 
ATOM     35  N   ALA E  14      -1.816  27.450  -2.250  1.00 85.74 LIG-0.35  N 
ATOM     36 H    ALA E  14      -1.063  27.864  -2.237  1.00 85.74 LIG 0.16  HD
ATOM     37 O    ALA E  13      -3.030  25.569  -1.977  1.00 75.52 LIG-0.27  OA
BRANCH 35 38
ATOM     38  CA  ALA E  14      -2.941  28.283  -2.633  1.00 94.46 LIG 0.16  C 
ATOM     39  CB  ALA E  14      -2.708  29.709  -2.187  1.00106.12 LIG 0.04  C 
BRANCH 38 40
ATOM     40  C   ALA E  14      -3.157  28.223  -4.141  1.00 99.07 LIG 0.22  C 
ATOM     41 O    ALA E  14      -2.449  27.508  -4.851  1.00120.33 LIG-0.29  OA
ENDBRANCH 38 40
ENDBRANCH 35 38
ENDBRANCH 32 34
ENDBRANCH 29 32
ENDBRANCH 26 28
ENDBRANCH 23 26
ENDBRANCH 1 22
TORSDOF 13
ENDMDL
MODEL 79
USER: ADFR SOLUTION from run 103
USER: SCORE 5.547940 LL:  -2.642 LR:  -4.041 RR:   0.000 FEB:  -0.164
USER: RMSD 5.276929
USER: SEED 102
USER: STATUS no improvement in best in 76 clusters for 5 generations
USER: GENES 15
USER: genes 0 Translation |==|  0.61561 0.35357 0.55697
USER: genes 1 Rotation |==|  0.80973 0.64595 0.56119 0.85920
USER: genes 2 Torsion [CB]-CA--N-[C] |==|  0.79200
USER: genes 3 Torsion [N]-C--CA-[N] |==|  0.87298
USER: genes 4 Torsion [C]-CA--N-[C] |==|  0.80874
USER: genes 5 Torsion [N]-C--CA-[N] |==|  0.41042
USER: genes 6 Torsion [C]-CA--N-[C] |==|  0.86021
USER: genes 7 Torsion [N]-C--CA-[N] |==|  0.07236
USER: genes 8 Torsion [N]-CA--C-[N] |==|  0.15382
USER: genes 9 Torsion [C]-N--CA-[CB] |==|  0.16852
USER: genes 10 Torsion [N]-CA--C-[N] |==|  0.12259
USER: genes 11 Torsion [C]-N--CA-[CB] |==|  0.18153
USER: genes 12 Torsion [N]-CA--C-[N] |==|  0.09246
USER: genes 13 Torsion [C]-N--CA-[C] |==|  0.58035
USER: genes 14 Torsion [N]-CA--C-[O] |==|  0.99819
ROOT
ATOM      1  CA  ALA E  11       1.381  20.993   2.219  1.00 85.35 LIG 0.17  C 
ATOM      2  CB  ALA E  11       1.421  19.682   3.006  1.00 80.46 LIG 0.04  C 
ENDROOT
BRANCH 1 3
ATOM      3  N   ALA E  11       2.104  22.034   2.942  1.00 87.15 LIG-0.35  N 
ATOM      4  C   ALA E  10       1.564  22.607   4.021  1.00 62.15 LIG 0.24  C 
ATOM      5 O    ALA E  10       0.556  22.160   4.569  1.00 65.72 LIG-0.27  OA
ATOM      6 H    ALA E  11       2.876  22.232   2.619  1.00 87.15 LIG 0.16  HD
BRANCH 4 7
ATOM      7  CA  ALA E  10       2.247  23.854   4.572  1.00 66.45 LIG 0.17  C 
ATOM      8  CB  ALA E  10       1.914  25.068   3.707  1.00 58.63 LIG 0.04  C 
BRANCH 7 9
ATOM      9  N   ALA E  10       3.691  23.691   4.658  1.00 75.43 LIG-0.35  N 
ATOM     10  C   ALA E   9       4.278  22.863   5.520  1.00 82.21 LIG 0.24  C 
ATOM     11 O    ALA E   9       3.655  22.186   6.345  1.00 73.75 LIG-0.27  OA
ATOM     12 H    ALA E  10       4.129  24.178   4.100  1.00 75.43 LIG 0.16  HD
BRANCH 10 13
ATOM     13  CA  ALA E   9       5.798  22.807   5.464  1.00 87.65 LIG 0.17  C 
ATOM     14  CB  ALA E   9       6.272  21.737   4.481  1.00 72.21 LIG 0.04  C 
BRANCH 13 15
ATOM     15  N   ALA E   9       6.287  22.546   6.812  1.00 84.24 LIG-0.35  N 
ATOM     16 H    ALA E   9       6.850  21.898   6.862  1.00 84.24 LIG 0.16  HD
ATOM     17  C   ALA E   8       5.888  23.254   7.859  1.00 61.40 LIG 0.26  C 
ATOM     18 O    ALA E   8       5.155  24.236   7.757  1.00 66.21 LIG-0.27  OA
BRANCH 17 19
ATOM     19  CA  ALA E   8       6.415  22.806   9.219  1.00 67.03 LIG 0.40  C 
ATOM     20  N   ALA E   8       7.718  22.091   9.069  1.00 60.26 LIG 0.61  N 
ATOM     21  CB  ALA E   8       6.568  23.999  10.156  1.00 64.64 LIG 0.06  C 
ENDBRANCH 17 19
ENDBRANCH 13 15
ENDBRANCH 10 13
ENDBRANCH 7 9
ENDBRANCH 4 7
ENDBRANCH 1 3
BRANCH 1 22
ATOM     22  C   ALA E  11      -0.061  21.402   1.947  1.00 81.78 LIG 0.24  C 
ATOM     23  N   ALA E  12      -0.264  22.550   1.303  1.00 82.91 LIG-0.35  N 
ATOM     24 H    ALA E  12       0.355  23.020   0.934  1.00 82.91 LIG 0.16  HD
ATOM     25 O    ALA E  11      -0.999  20.691   2.327  1.00 89.30 LIG-0.27  OA
BRANCH 23 26
ATOM     26  CA  ALA E  12      -1.609  23.095   1.183  1.00 61.10 LIG 0.17  C 
ATOM     27  CB  ALA E  12      -2.208  23.380   2.569  1.00 65.27 LIG 0.04  C 
BRANCH 26 28
ATOM     28  C   ALA E  12      -1.599  24.359   0.339  1.00 54.59 LIG 0.24  C 
ATOM     29  N   ALA E  13      -0.861  24.285  -0.769  1.00 64.78 LIG-0.35  N 
ATOM     30 H    ALA E  13      -0.468  23.567  -1.035  1.00 64.78 LIG 0.16  HD
ATOM     31 O    ALA E  12      -2.261  25.351   0.656  1.00 69.11 LIG-0.27  OA
BRANCH 29 32
ATOM     32  CA  ALA E  13      -0.655  25.433  -1.637  1.00 54.23 LIG 0.17  C 
ATOM     33  CB  ALA E  13       0.144  26.509  -0.900  1.00 56.27 LIG 0.04  C 
BRANCH 32 34
ATOM     34  C   ALA E  13       0.092  25.071  -2.908  1.00 65.29 LIG 0.24  C 
ATOM     35  N   ALA E  14      -0.152  23.855  -3.383  1.00 85.74 LIG-0.35  N 
ATOM     36 H    ALA E  14      -0.664  23.287  -2.990  1.00 85.74 LIG 0.16  HD
ATOM     37 O    ALA E  13       0.821  25.887  -3.478  1.00 75.52 LIG-0.27  OA
BRANCH 35 38
ATOM     38  CA  ALA E  14       0.430  23.367  -4.620  1.00 94.46 LIG 0.16  C 
ATOM     39  CB  ALA E  14       1.789  22.762  -4.353  1.00106.12 LIG 0.04  C 
BRANCH 38 40
ATOM     40  C   ALA E  14      -0.493  22.344  -5.272  1.00 99.07 LIG 0.22  C 
ATOM     41 O    ALA E  14      -1.558  22.028  -4.742  1.00120.33 LIG-0.29  OA
ENDBRANCH 38 40
ENDBRANCH 35 38
ENDBRANCH 32 34
ENDBRANCH 29 32
ENDBRANCH 26 28
ENDBRANCH 23 26
ENDBRANCH 1 22
TORSDOF 13
ENDMDL
MODEL 80
USER: ADFR SOLUTION from run 119
USER: SCORE 3.531557 LL:  -2.454 LR:  -4.041 RR:   0.000 FEB:  -0.163
USER: RMSD 4.487375
USER: SEED 118
USER: STATUS no improvement in best in 76 clusters for 5 generations
USER: GENES 15
USER: genes 0 Translation |==|  0.57568 0.45698 0.69741
USER: genes 1 Rotation |==|  0.28648 0.55717 0.41202 0.93977
USER: genes 2 Torsion [CB]-CA--N-[C] |==|  0.48622
USER: genes 3 Torsion [N]-C--CA-[N] |==|  0.16908
USER: genes 4 Torsion [C]-CA--N-[C] |==|  0.18888
USER: genes 5 Torsion [N]-C--CA-[N] |==|  0.41214
USER: genes 6 Torsion [C]-CA--N-[C] |==|  0.79099
USER: genes 7 Torsion [N]-C--CA-[N] |==|  0.02289
USER: genes 8 Torsion [N]-CA--C-[N] |==|  0.88586
USER: genes 9 Torsion [C]-N--CA-[CB] |==|  0.18862
USER: genes 10 Torsion [N]-CA--C-[N] |==|  0.58395
USER: genes 11 Torsion [C]-N--CA-[CB] |==|  0.84844
USER: genes 12 Torsion [N]-CA--C-[N] |==|  0.40128
USER: genes 13 Torsion [C]-N--CA-[C] |==|  0.75052
USER: genes 14 Torsion [N]-CA--C-[O] |==|  0.01066
ROOT
ATOM      1  CA  ALA E  11       0.483  22.855   4.747  1.00 85.35 LIG 0.17  C 
ATOM      2  CB  ALA E  11       0.185  24.314   5.096  1.00 80.46 LIG 0.04  C 
ENDROOT
BRANCH 1 3
ATOM      3  N   ALA E  11       1.426  22.786   3.636  1.00 87.15 LIG-0.35  N 
ATOM      4  C   ALA E  10       1.905  21.608   3.228  1.00 62.15 LIG 0.24  C 
ATOM      5 O    ALA E  10       1.436  20.537   3.614  1.00 65.72 LIG-0.27  OA
ATOM      6 H    ALA E  11       1.632  23.545   3.287  1.00 87.15 LIG 0.16  HD
BRANCH 4 7
ATOM      7  CA  ALA E  10       3.071  21.625   2.246  1.00 66.45 LIG 0.17  C 
ATOM      8  CB  ALA E  10       3.430  20.201   1.825  1.00 58.63 LIG 0.04  C 
BRANCH 7 9
ATOM      9  N   ALA E  10       4.242  22.284   2.803  1.00 75.43 LIG-0.35  N 
ATOM     10  C   ALA E   9       4.947  21.779   3.813  1.00 82.21 LIG 0.24  C 
ATOM     11 O    ALA E   9       4.654  20.726   4.389  1.00 73.75 LIG-0.27  OA
ATOM     12 H    ALA E  10       4.436  23.030   2.420  1.00 75.43 LIG 0.16  HD
BRANCH 10 13
ATOM     13  CA  ALA E   9       6.153  22.594   4.261  1.00 87.65 LIG 0.17  C 
ATOM     14  CB  ALA E   9       7.405  22.196   3.483  1.00 72.21 LIG 0.04  C 
BRANCH 13 15
ATOM     15  N   ALA E   9       6.327  22.385   5.693  1.00 84.24 LIG-0.35  N 
ATOM     16 H    ALA E   9       6.981  21.864   5.896  1.00 84.24 LIG 0.16  HD
ATOM     17  C   ALA E   8       5.538  22.955   6.593  1.00 61.40 LIG 0.26  C 
ATOM     18 O    ALA E   8       4.668  23.771   6.293  1.00 66.21 LIG-0.27  OA
BRANCH 17 19
ATOM     19  CA  ALA E   8       5.785  22.571   8.049  1.00 67.03 LIG 0.40  C 
ATOM     20  N   ALA E   8       7.029  21.754   8.174  1.00 60.26 LIG 0.61  N 
ATOM     21  CB  ALA E   8       5.876  23.815   8.926  1.00 64.64 LIG 0.06  C 
ENDBRANCH 17 19
ENDBRANCH 13 15
ENDBRANCH 10 13
ENDBRANCH 7 9
ENDBRANCH 4 7
ENDBRANCH 1 3
BRANCH 1 22
ATOM     22  C   ALA E  11      -0.810  22.114   4.429  1.00 81.78 LIG 0.24  C 
ATOM     23  N   ALA E  12      -1.312  22.251   3.203  1.00 82.91 LIG-0.35  N 
ATOM     24 H    ALA E  12      -0.906  22.634   2.548  1.00 82.91 LIG 0.16  HD
ATOM     25 O    ALA E  11      -1.369  21.424   5.291  1.00 89.30 LIG-0.27  OA
BRANCH 23 26
ATOM     26  CA  ALA E  12      -2.637  21.734   2.891  1.00 61.10 LIG 0.17  C 
ATOM     27  CB  ALA E  12      -3.721  22.530   3.634  1.00 65.27 LIG 0.04  C 
BRANCH 26 28
ATOM     28  C   ALA E  12      -2.884  21.770   1.392  1.00 54.59 LIG 0.24  C 
ATOM     29  N   ALA E  13      -4.159  21.939   1.040  1.00 64.78 LIG-0.35  N 
ATOM     30 H    ALA E  13      -4.795  22.083   1.601  1.00 64.78 LIG 0.16  HD
ATOM     31 O    ALA E  12      -1.955  21.687   0.584  1.00 69.11 LIG-0.27  OA
BRANCH 29 32
ATOM     32  CA  ALA E  13      -4.588  21.894  -0.349  1.00 54.23 LIG 0.17  C 
ATOM     33  CB  ALA E  13      -3.778  22.890  -1.179  1.00 56.27 LIG 0.04  C 
BRANCH 32 34
ATOM     34  C   ALA E  13      -4.422  20.515  -0.962  1.00 65.29 LIG 0.24  C 
ATOM     35  N   ALA E  14      -5.361  20.164  -1.832  1.00 85.74 LIG-0.35  N 
ATOM     36 H    ALA E  14      -6.042  20.654  -2.019  1.00 85.74 LIG 0.16  HD
ATOM     37 O    ALA E  13      -3.442  19.812  -0.703  1.00 75.52 LIG-0.27  OA
BRANCH 35 38
ATOM     38  CA  ALA E  14      -5.325  18.906  -2.557  1.00 94.46 LIG 0.16  C 
ATOM     39  CB  ALA E  14      -6.731  18.413  -2.814  1.00106.12 LIG 0.04  C 
BRANCH 38 40
ATOM     40  C   ALA E  14      -4.568  19.073  -3.870  1.00 99.07 LIG 0.22  C 
ATOM     41 O    ALA E  14      -4.029  20.142  -4.155  1.00120.33 LIG-0.29  OA
ENDBRANCH 38 40
ENDBRANCH 35 38
ENDBRANCH 32 34
ENDBRANCH 29 32
ENDBRANCH 26 28
ENDBRANCH 23 26
ENDBRANCH 1 22
TORSDOF 13
ENDMDL
MODEL 81
USER: ADFR SOLUTION from run 160
USER: SCORE 5.039848 LL:  -2.307 LR:  -4.044 RR:   0.000 FEB:  -0.166
USER: RMSD 4.024195
USER: SEED 159
USER: STATUS no improvement in best in 28 clusters for 5 generations
USER: GENES 15
USER: genes 0 Translation |==|  0.56767 0.25400 0.57624
USER: genes 1 Rotation |==|  0.74178 0.65185 0.56624 0.90509
USER: genes 2 Torsion [CB]-CA--N-[C] |==|  0.15703
USER: genes 3 Torsion [N]-C--CA-[N] |==|  0.53190
USER: genes 4 Torsion [C]-CA--N-[C] |==|  0.63959
USER: genes 5 Torsion [N]-C--CA-[N] |==|  0.16772
USER: genes 6 Torsion [C]-CA--N-[C] |==|  0.78333
USER: genes 7 Torsion [N]-C--CA-[N] |==|  0.94396
USER: genes 8 Torsion [N]-CA--C-[N] |==|  0.11096
USER: genes 9 Torsion [C]-N--CA-[CB] |==|  0.16446
USER: genes 10 Torsion [N]-CA--C-[N] |==|  0.08973
USER: genes 11 Torsion [C]-N--CA-[CB] |==|  0.84365
USER: genes 12 Torsion [N]-CA--C-[N] |==|  0.40509
USER: genes 13 Torsion [C]-N--CA-[C] |==|  0.77216
USER: genes 14 Torsion [N]-CA--C-[O] |==|  0.97466
ROOT
ATOM      1  CA  ALA E  11       0.303  19.201   2.566  1.00 85.35 LIG 0.17  C 
ATOM      2  CB  ALA E  11       0.362  18.194   3.717  1.00 80.46 LIG 0.04  C 
ENDROOT
BRANCH 1 3
ATOM      3  N   ALA E  11       0.877  20.475   2.984  1.00 87.15 LIG-0.35  N 
ATOM      4  C   ALA E  10       2.127  20.531   3.453  1.00 62.15 LIG 0.24  C 
ATOM      5 O    ALA E  10       2.906  19.582   3.367  1.00 65.72 LIG-0.27  OA
ATOM      6 H    ALA E  11       0.356  21.154   2.902  1.00 87.15 LIG 0.16  HD
BRANCH 4 7
ATOM      7  CA  ALA E  10       2.574  21.833   4.109  1.00 66.45 LIG 0.17  C 
ATOM      8  CB  ALA E  10       2.158  23.029   3.255  1.00 58.63 LIG 0.04  C 
BRANCH 7 9
ATOM      9  N   ALA E  10       4.012  21.863   4.333  1.00 75.43 LIG-0.35  N 
ATOM     10  C   ALA E   9       4.557  22.178   5.506  1.00 82.21 LIG 0.24  C 
ATOM     11 O    ALA E   9       3.897  22.503   6.499  1.00 73.75 LIG-0.27  OA
ATOM     12 H    ALA E  10       4.475  21.660   3.637  1.00 75.43 LIG 0.16  HD
BRANCH 10 13
ATOM     13  CA  ALA E   9       6.078  22.146   5.566  1.00 87.65 LIG 0.17  C 
ATOM     14  CB  ALA E   9       6.577  22.457   6.976  1.00 72.21 LIG 0.04  C 
BRANCH 13 15
ATOM     15  N   ALA E   9       6.585  23.110   4.597  1.00 84.24 LIG-0.35  N 
ATOM     16 H    ALA E   9       6.850  23.851   4.944  1.00 84.24 LIG 0.16  HD
ATOM     17  C   ALA E   8       6.628  22.852   3.298  1.00 61.40 LIG 0.26  C 
ATOM     18 O    ALA E   8       6.334  21.754   2.828  1.00 66.21 LIG-0.27  OA
BRANCH 17 19
ATOM     19  CA  ALA E   8       7.098  23.990   2.397  1.00 67.03 LIG 0.40  C 
ATOM     20  N   ALA E   8       6.958  25.304   3.093  1.00 60.26 LIG 0.61  N 
ATOM     21  CB  ALA E   8       8.543  23.770   1.963  1.00 64.64 LIG 0.06  C 
ENDBRANCH 17 19
ENDBRANCH 13 15
ENDBRANCH 10 13
ENDBRANCH 7 9
ENDBRANCH 4 7
ENDBRANCH 1 3
BRANCH 1 22
ATOM     22  C   ALA E  11      -1.133  19.367   2.085  1.00 81.78 LIG 0.24  C 
ATOM     23  N   ALA E  12      -1.415  20.442   1.351  1.00 82.91 LIG-0.35  N 
ATOM     24 H    ALA E  12      -0.829  20.988   1.037  1.00 82.91 LIG 0.16  HD
ATOM     25 O    ALA E  11      -1.998  18.534   2.383  1.00 89.30 LIG-0.27  OA
BRANCH 23 26
ATOM     26  CA  ALA E  12      -2.797  20.765   1.024  1.00 61.10 LIG 0.17  C 
ATOM     27  CB  ALA E  12      -3.625  20.972   2.301  1.00 65.27 LIG 0.04  C 
BRANCH 26 28
ATOM     28  C   ALA E  12      -2.862  22.001   0.141  1.00 54.59 LIG 0.24  C 
ATOM     29  N   ALA E  13      -1.828  22.151  -0.687  1.00 64.78 LIG-0.35  N 
ATOM     30 H    ALA E  13      -1.198  21.572  -0.775  1.00 64.78 LIG 0.16  HD
ATOM     31 O    ALA E  12      -3.827  22.769   0.180  1.00 69.11 LIG-0.27  OA
BRANCH 29 32
ATOM     32  CA  ALA E  13      -1.676  23.329  -1.525  1.00 54.23 LIG 0.17  C 
ATOM     33  CB  ALA E  13      -2.917  23.511  -2.400  1.00 56.27 LIG 0.04  C 
BRANCH 32 34
ATOM     34  C   ALA E  13      -1.474  24.596  -0.713  1.00 65.29 LIG 0.24  C 
ATOM     35  N   ALA E  14      -0.673  25.501  -1.265  1.00 85.74 LIG-0.35  N 
ATOM     36 H    ALA E  14      -0.261  25.379  -2.009  1.00 85.74 LIG 0.16  HD
ATOM     37 O    ALA E  13      -2.070  24.778   0.351  1.00 75.52 LIG-0.27  OA
BRANCH 35 38
ATOM     38  CA  ALA E  14      -0.417  26.793  -0.655  1.00 94.46 LIG 0.16  C 
ATOM     39  CB  ALA E  14       0.909  27.340  -1.131  1.00106.12 LIG 0.04  C 
BRANCH 38 40
ATOM     40  C   ALA E  14      -1.545  27.766  -0.981  1.00 99.07 LIG 0.22  C 
ATOM     41 O    ALA E  14      -2.412  27.472  -1.804  1.00120.33 LIG-0.29  OA
ENDBRANCH 38 40
ENDBRANCH 35 38
ENDBRANCH 32 34
ENDBRANCH 29 32
ENDBRANCH 26 28
ENDBRANCH 23 26
ENDBRANCH 1 22
TORSDOF 13
ENDMDL
MODEL 82
USER: ADFR SOLUTION from run 103
USER: SCORE 4.928007 LL:  -2.418 LR:  -4.031 RR:   0.000 FEB:  -0.154
USER: RMSD 4.335306
USER: SEED 102
USER: STATUS no improvement in best in 76 clusters for 5 generations
USER: GENES 15
USER: genes 0 Translation |==|  0.61561 0.35357 0.55697
USER: genes 1 Rotation |==|  0.80973 0.64595 0.56119 0.85920
USER: genes 2 Torsion [CB]-CA--N-[C] |==|  0.79200
USER: genes 3 Torsion [N]-C--CA-[N] |==|  0.87298
USER: genes 4 Torsion [C]-CA--N-[C] |==|  0.80874
USER: genes 5 Torsion [N]-C--CA-[N] |==|  0.41042
USER: genes 6 Torsion [C]-CA--N-[C] |==|  0.86021
USER: genes 7 Torsion [N]-C--CA-[N] |==|  0.07236
USER: genes 8 Torsion [N]-CA--C-[N] |==|  0.53149
USER: genes 9 Torsion [C]-N--CA-[CB] |==|  0.48889
USER: genes 10 Torsion [N]-CA--C-[N] |==|  0.42673
USER: genes 11 Torsion [C]-N--CA-[CB] |==|  0.16771
USER: genes 12 Torsion [N]-CA--C-[N] |==|  0.09142
USER: genes 13 Torsion [C]-N--CA-[C] |==|  0.59826
USER: genes 14 Torsion [N]-CA--C-[O] |==|  0.99646
ROOT
ATOM      1  CA  ALA E  11       1.381  20.993   2.219  1.00 85.35 LIG 0.17  C 
ATOM      2  CB  ALA E  11       1.421  19.682   3.006  1.00 80.46 LIG 0.04  C 
ENDROOT
BRANCH 1 3
ATOM      3  N   ALA E  11       2.104  22.034   2.942  1.00 87.15 LIG-0.35  N 
ATOM      4  C   ALA E  10       1.564  22.607   4.021  1.00 62.15 LIG 0.24  C 
ATOM      5 O    ALA E  10       0.556  22.160   4.569  1.00 65.72 LIG-0.27  OA
ATOM      6 H    ALA E  11       2.876  22.232   2.619  1.00 87.15 LIG 0.16  HD
BRANCH 4 7
ATOM      7  CA  ALA E  10       2.247  23.854   4.572  1.00 66.45 LIG 0.17  C 
ATOM      8  CB  ALA E  10       1.914  25.068   3.707  1.00 58.63 LIG 0.04  C 
BRANCH 7 9
ATOM      9  N   ALA E  10       3.691  23.691   4.658  1.00 75.43 LIG-0.35  N 
ATOM     10  C   ALA E   9       4.278  22.863   5.520  1.00 82.21 LIG 0.24  C 
ATOM     11 O    ALA E   9       3.655  22.186   6.345  1.00 73.75 LIG-0.27  OA
ATOM     12 H    ALA E  10       4.129  24.178   4.100  1.00 75.43 LIG 0.16  HD
BRANCH 10 13
ATOM     13  CA  ALA E   9       5.798  22.807   5.464  1.00 87.65 LIG 0.17  C 
ATOM     14  CB  ALA E   9       6.272  21.737   4.481  1.00 72.21 LIG 0.04  C 
BRANCH 13 15
ATOM     15  N   ALA E   9       6.287  22.546   6.812  1.00 84.24 LIG-0.35  N 
ATOM     16 H    ALA E   9       6.850  21.898   6.862  1.00 84.24 LIG 0.16  HD
ATOM     17  C   ALA E   8       5.888  23.254   7.859  1.00 61.40 LIG 0.26  C 
ATOM     18 O    ALA E   8       5.155  24.236   7.757  1.00 66.21 LIG-0.27  OA
BRANCH 17 19
ATOM     19  CA  ALA E   8       6.415  22.806   9.219  1.00 67.03 LIG 0.40  C 
ATOM     20  N   ALA E   8       7.718  22.091   9.069  1.00 60.26 LIG 0.61  N 
ATOM     21  CB  ALA E   8       6.568  23.999  10.156  1.00 64.64 LIG 0.06  C 
ENDBRANCH 17 19
ENDBRANCH 13 15
ENDBRANCH 10 13
ENDBRANCH 7 9
ENDBRANCH 4 7
ENDBRANCH 1 3
BRANCH 1 22
ATOM     22  C   ALA E  11      -0.061  21.402   1.947  1.00 81.78 LIG 0.24  C 
ATOM     23  N   ALA E  12      -0.894  20.461   1.504  1.00 82.91 LIG-0.35  N 
ATOM     24 H    ALA E  12      -0.708  19.622   1.465  1.00 82.91 LIG 0.16  HD
ATOM     25 O    ALA E  11      -0.429  22.569   2.124  1.00 89.30 LIG-0.27  OA
BRANCH 23 26
ATOM     26  CA  ALA E  12      -2.226  20.821   1.039  1.00 61.10 LIG 0.17  C 
ATOM     27  CB  ALA E  12      -2.962  19.591   0.487  1.00 65.27 LIG 0.04  C 
BRANCH 26 28
ATOM     28  C   ALA E  12      -3.028  21.459   2.163  1.00 54.59 LIG 0.24  C 
ATOM     29  N   ALA E  13      -3.986  22.294   1.761  1.00 64.78 LIG-0.35  N 
ATOM     30 H    ALA E  13      -4.192  22.424   0.935  1.00 64.78 LIG 0.16  HD
ATOM     31 O    ALA E  12      -2.814  21.180   3.345  1.00 69.11 LIG-0.27  OA
BRANCH 29 32
ATOM     32  CA  ALA E  13      -4.778  23.070   2.701  1.00 54.23 LIG 0.17  C 
ATOM     33  CB  ALA E  13      -3.868  23.988   3.518  1.00 56.27 LIG 0.04  C 
BRANCH 32 34
ATOM     34  C   ALA E  13      -5.824  23.926   2.010  1.00 65.29 LIG 0.24  C 
ATOM     35  N   ALA E  14      -6.336  23.408   0.899  1.00 85.74 LIG-0.35  N 
ATOM     36 H    ALA E  14      -6.078  22.661   0.561  1.00 85.74 LIG 0.16  HD
ATOM     37 O    ALA E  13      -6.203  24.994   2.496  1.00 75.52 LIG-0.27  OA
BRANCH 35 38
ATOM     38  CA  ALA E  14      -7.390  24.063   0.145  1.00 94.46 LIG 0.16  C 
ATOM     39  CB  ALA E  14      -6.791  24.925  -0.944  1.00106.12 LIG 0.04  C 
BRANCH 38 40
ATOM     40  C   ALA E  14      -8.336  23.028  -0.452  1.00 99.07 LIG 0.22  C 
ATOM     41 O    ALA E  14      -8.140  21.824  -0.286  1.00120.33 LIG-0.29  OA
ENDBRANCH 38 40
ENDBRANCH 35 38
ENDBRANCH 32 34
ENDBRANCH 29 32
ENDBRANCH 26 28
ENDBRANCH 23 26
ENDBRANCH 1 22
TORSDOF 13
ENDMDL
MODEL 83
USER: ADFR SOLUTION from run 103
USER: SCORE 5.169050 LL:  -1.698 LR:  -4.026 RR:   0.000 FEB:  -0.149
USER: RMSD 5.684811
USER: SEED 102
USER: STATUS no improvement in best in 76 clusters for 5 generations
USER: GENES 15
USER: genes 0 Translation |==|  0.61561 0.35357 0.55697
USER: genes 1 Rotation |==|  0.80973 0.64595 0.56119 0.85920
USER: genes 2 Torsion [CB]-CA--N-[C] |==|  0.79200
USER: genes 3 Torsion [N]-C--CA-[N] |==|  0.87298
USER: genes 4 Torsion [C]-CA--N-[C] |==|  0.80874
USER: genes 5 Torsion [N]-C--CA-[N] |==|  0.41042
USER: genes 6 Torsion [C]-CA--N-[C] |==|  0.86021
USER: genes 7 Torsion [N]-C--CA-[N] |==|  0.07236
USER: genes 8 Torsion [N]-CA--C-[N] |==|  0.44374
USER: genes 9 Torsion [C]-N--CA-[CB] |==|  0.16852
USER: genes 10 Torsion [N]-CA--C-[N] |==|  0.09744
USER: genes 11 Torsion [C]-N--CA-[CB] |==|  0.83595
USER: genes 12 Torsion [N]-CA--C-[N] |==|  0.39981
USER: genes 13 Torsion [C]-N--CA-[C] |==|  0.75220
USER: genes 14 Torsion [N]-CA--C-[O] |==|  0.99621
ROOT
ATOM      1  CA  ALA E  11       1.381  20.993   2.219  1.00 85.35 LIG 0.17  C 
ATOM      2  CB  ALA E  11       1.421  19.682   3.006  1.00 80.46 LIG 0.04  C 
ENDROOT
BRANCH 1 3
ATOM      3  N   ALA E  11       2.104  22.034   2.942  1.00 87.15 LIG-0.35  N 
ATOM      4  C   ALA E  10       1.564  22.607   4.021  1.00 62.15 LIG 0.24  C 
ATOM      5 O    ALA E  10       0.556  22.160   4.569  1.00 65.72 LIG-0.27  OA
ATOM      6 H    ALA E  11       2.876  22.232   2.619  1.00 87.15 LIG 0.16  HD
BRANCH 4 7
ATOM      7  CA  ALA E  10       2.247  23.854   4.572  1.00 66.45 LIG 0.17  C 
ATOM      8  CB  ALA E  10       1.914  25.068   3.707  1.00 58.63 LIG 0.04  C 
BRANCH 7 9
ATOM      9  N   ALA E  10       3.691  23.691   4.658  1.00 75.43 LIG-0.35  N 
ATOM     10  C   ALA E   9       4.278  22.863   5.520  1.00 82.21 LIG 0.24  C 
ATOM     11 O    ALA E   9       3.655  22.186   6.345  1.00 73.75 LIG-0.27  OA
ATOM     12 H    ALA E  10       4.129  24.178   4.100  1.00 75.43 LIG 0.16  HD
BRANCH 10 13
ATOM     13  CA  ALA E   9       5.798  22.807   5.464  1.00 87.65 LIG 0.17  C 
ATOM     14  CB  ALA E   9       6.272  21.737   4.481  1.00 72.21 LIG 0.04  C 
BRANCH 13 15
ATOM     15  N   ALA E   9       6.287  22.546   6.812  1.00 84.24 LIG-0.35  N 
ATOM     16 H    ALA E   9       6.850  21.898   6.862  1.00 84.24 LIG 0.16  HD
ATOM     17  C   ALA E   8       5.888  23.254   7.859  1.00 61.40 LIG 0.26  C 
ATOM     18 O    ALA E   8       5.155  24.236   7.757  1.00 66.21 LIG-0.27  OA
BRANCH 17 19
ATOM     19  CA  ALA E   8       6.415  22.806   9.219  1.00 67.03 LIG 0.40  C 
ATOM     20  N   ALA E   8       7.718  22.091   9.069  1.00 60.26 LIG 0.61  N 
ATOM     21  CB  ALA E   8       6.568  23.999  10.156  1.00 64.64 LIG 0.06  C 
ENDBRANCH 17 19
ENDBRANCH 13 15
ENDBRANCH 10 13
ENDBRANCH 7 9
ENDBRANCH 4 7
ENDBRANCH 1 3
BRANCH 1 22
ATOM     22  C   ALA E  11      -0.061  21.402   1.947  1.00 81.78 LIG 0.24  C 
ATOM     23  N   ALA E  12      -0.706  20.767   0.970  1.00 82.91 LIG-0.35  N 
ATOM     24 H    ALA E  12      -0.409  20.073   0.557  1.00 82.91 LIG 0.16  HD
ATOM     25 O    ALA E  11      -0.597  22.300   2.608  1.00 89.30 LIG-0.27  OA
BRANCH 23 26
ATOM     26  CA  ALA E  12      -2.012  21.236   0.528  1.00 61.10 LIG 0.17  C 
ATOM     27  CB  ALA E  12      -1.921  22.672  -0.010  1.00 65.27 LIG 0.04  C 
BRANCH 26 28
ATOM     28  C   ALA E  12      -2.582  20.307  -0.532  1.00 54.59 LIG 0.24  C 
ATOM     29  N   ALA E  13      -2.287  19.018  -0.362  1.00 64.78 LIG-0.35  N 
ATOM     30 H    ALA E  13      -1.864  18.711   0.321  1.00 64.78 LIG 0.16  HD
ATOM     31 O    ALA E  12      -3.292  20.733  -1.447  1.00 69.11 LIG-0.27  OA
BRANCH 29 32
ATOM     32  CA  ALA E  13      -2.662  18.006  -1.336  1.00 54.23 LIG 0.17  C 
ATOM     33  CB  ALA E  13      -4.179  17.995  -1.520  1.00 56.27 LIG 0.04  C 
BRANCH 32 34
ATOM     34  C   ALA E  13      -2.018  18.239  -2.691  1.00 65.29 LIG 0.24  C 
ATOM     35  N   ALA E  14      -1.664  17.140  -3.347  1.00 85.74 LIG-0.35  N 
ATOM     36 H    ALA E  14      -1.751  16.348  -3.027  1.00 85.74 LIG 0.16  HD
ATOM     37 O    ALA E  13      -1.898  19.375  -3.157  1.00 75.52 LIG-0.27  OA
BRANCH 35 38
ATOM     38  CA  ALA E  14      -1.091  17.177  -4.681  1.00 94.46 LIG 0.16  C 
ATOM     39  CB  ALA E  14      -0.128  16.026  -4.865  1.00106.12 LIG 0.04  C 
BRANCH 38 40
ATOM     40  C   ALA E  14      -2.193  17.126  -5.733  1.00 99.07 LIG 0.22  C 
ATOM     41 O    ALA E  14      -3.376  17.038  -5.403  1.00120.33 LIG-0.29  OA
ENDBRANCH 38 40
ENDBRANCH 35 38
ENDBRANCH 32 34
ENDBRANCH 29 32
ENDBRANCH 26 28
ENDBRANCH 23 26
ENDBRANCH 1 22
TORSDOF 13
ENDMDL
MODEL 84
USER: ADFR SOLUTION from run 84
USER: SCORE 3.632636 LL:  -2.416 LR:  -4.026 RR:   0.000 FEB:  -0.148
USER: RMSD 4.445255
USER: SEED 83
USER: STATUS no improvement in best in 80 clusters for 5 generations
USER: GENES 15
USER: genes 0 Translation |==|  0.63896 0.31971 0.62073
USER: genes 1 Rotation |==|  0.48321 0.35007 0.56632 0.97206
USER: genes 2 Torsion [CB]-CA--N-[C] |==|  0.40622
USER: genes 3 Torsion [N]-C--CA-[N] |==|  0.09739
USER: genes 4 Torsion [C]-CA--N-[C] |==|  0.19444
USER: genes 5 Torsion [N]-C--CA-[N] |==|  0.94921
USER: genes 6 Torsion [C]-CA--N-[C] |==|  0.83297
USER: genes 7 Torsion [N]-C--CA-[N] |==|  0.27338
USER: genes 8 Torsion [N]-CA--C-[N] |==|  0.77158
USER: genes 9 Torsion [C]-N--CA-[CB] |==|  0.15566
USER: genes 10 Torsion [N]-CA--C-[N] |==|  0.59118
USER: genes 11 Torsion [C]-N--CA-[CB] |==|  0.84374
USER: genes 12 Torsion [N]-CA--C-[N] |==|  0.40556
USER: genes 13 Torsion [C]-N--CA-[C] |==|  0.73686
USER: genes 14 Torsion [N]-CA--C-[O] |==|  0.00676
ROOT
ATOM      1  CA  ALA E  11       1.907  20.384   3.367  1.00 85.35 LIG 0.17  C 
ATOM      2  CB  ALA E  11       0.439  20.605   3.740  1.00 80.46 LIG 0.04  C 
ENDROOT
BRANCH 1 3
ATOM      3  N   ALA E  11       2.635  21.647   3.422  1.00 87.15 LIG-0.35  N 
ATOM      4  C   ALA E  10       3.915  21.672   3.801  1.00 62.15 LIG 0.24  C 
ATOM      5 O    ALA E  10       4.588  20.647   3.920  1.00 65.72 LIG-0.27  OA
ATOM      6 H    ALA E  11       2.178  22.340   3.197  1.00 87.15 LIG 0.16  HD
BRANCH 4 7
ATOM      7  CA  ALA E  10       4.538  23.035   4.086  1.00 66.45 LIG 0.17  C 
ATOM      8  CB  ALA E  10       5.751  22.883   5.002  1.00 58.63 LIG 0.04  C 
BRANCH 7 9
ATOM      9  N   ALA E  10       3.582  23.956   4.683  1.00 75.43 LIG-0.35  N 
ATOM     10  C   ALA E   9       3.118  23.816   5.923  1.00 82.21 LIG 0.24  C 
ATOM     11 O    ALA E   9       3.428  22.878   6.665  1.00 73.75 LIG-0.27  OA
ATOM     12 H    ALA E  10       3.346  24.597   4.161  1.00 75.43 LIG 0.16  HD
BRANCH 10 13
ATOM     13  CA  ALA E   9       2.135  24.879   6.393  1.00 87.65 LIG 0.17  C 
ATOM     14  CB  ALA E   9       0.705  24.343   6.391  1.00 72.21 LIG 0.04  C 
BRANCH 13 15
ATOM     15  N   ALA E   9       2.271  26.035   5.515  1.00 84.24 LIG-0.35  N 
ATOM     16 H    ALA E   9       1.551  26.243   5.093  1.00 84.24 LIG 0.16  HD
ATOM     17  C   ALA E   8       3.412  26.698   5.389  1.00 61.40 LIG 0.26  C 
ATOM     18 O    ALA E   8       4.405  26.447   6.069  1.00 66.21 LIG-0.27  OA
BRANCH 17 19
ATOM     19  CA  ALA E   8       3.428  27.829   4.365  1.00 67.03 LIG 0.40  C 
ATOM     20  N   ALA E   8       3.220  29.148   5.034  1.00 60.26 LIG 0.61  N 
ATOM     21  CB  ALA E   8       4.737  27.830   3.584  1.00 64.64 LIG 0.06  C 
ENDBRANCH 17 19
ENDBRANCH 13 15
ENDBRANCH 10 13
ENDBRANCH 7 9
ENDBRANCH 4 7
ENDBRANCH 1 3
BRANCH 1 22
ATOM     22  C   ALA E  11       2.009  19.739   1.990  1.00 81.78 LIG 0.24  C 
ATOM     23  N   ALA E  12       1.177  20.172   1.045  1.00 82.91 LIG-0.35  N 
ATOM     24 H    ALA E  12       0.664  20.859   1.121  1.00 82.91 LIG 0.16  HD
ATOM     25 O    ALA E  11       2.831  18.840   1.775  1.00 89.30 LIG-0.27  OA
BRANCH 23 26
ATOM     26  CA  ALA E  12       1.086  19.472  -0.229  1.00 61.10 LIG 0.17  C 
ATOM     27  CB  ALA E  12       0.741  17.990  -0.013  1.00 65.27 LIG 0.04  C 
BRANCH 26 28
ATOM     28  C   ALA E  12       0.053  20.132  -1.128  1.00 54.59 LIG 0.24  C 
ATOM     29  N   ALA E  13      -0.601  19.296  -1.935  1.00 64.78 LIG-0.35  N 
ATOM     30 H    ALA E  13      -0.506  18.442  -1.916  1.00 64.78 LIG 0.16  HD
ATOM     31 O    ALA E  12      -0.172  21.344  -1.068  1.00 69.11 LIG-0.27  OA
BRANCH 29 32
ATOM     32  CA  ALA E  13      -1.547  19.770  -2.932  1.00 54.23 LIG 0.17  C 
ATOM     33  CB  ALA E  13      -2.634  20.611  -2.263  1.00 56.27 LIG 0.04  C 
BRANCH 32 34
ATOM     34  C   ALA E  13      -0.884  20.613  -4.006  1.00 65.29 LIG 0.24  C 
ATOM     35  N   ALA E  14      -1.407  20.498  -5.221  1.00 85.74 LIG-0.35  N 
ATOM     36 H    ALA E  14      -2.051  19.961  -5.411  1.00 85.74 LIG 0.16  HD
ATOM     37 O    ALA E  13       0.034  21.391  -3.735  1.00 75.52 LIG-0.27  OA
BRANCH 35 38
ATOM     38  CA  ALA E  14      -0.935  21.276  -6.352  1.00 94.46 LIG 0.16  C 
ATOM     39  CB  ALA E  14      -0.965  20.438  -7.610  1.00106.12 LIG 0.04  C 
BRANCH 38 40
ATOM     40  C   ALA E  14      -1.786  22.530  -6.525  1.00 99.07 LIG 0.22  C 
ATOM     41 O    ALA E  14      -2.695  22.788  -5.736  1.00120.33 LIG-0.29  OA
ENDBRANCH 38 40
ENDBRANCH 35 38
ENDBRANCH 32 34
ENDBRANCH 29 32
ENDBRANCH 26 28
ENDBRANCH 23 26
ENDBRANCH 1 22
TORSDOF 13
ENDMDL
MODEL 85
USER: ADFR SOLUTION from run 148
USER: SCORE 6.051356 LL:  -2.596 LR:  -4.012 RR:   0.000 FEB:  -0.134
USER: RMSD 4.943545
USER: SEED 147
USER: STATUS searching
USER: GENES 15
USER: genes 0 Translation |==|  0.65613 0.27799 0.57512
USER: genes 1 Rotation |==|  0.67413 0.44300 0.60469 0.95329
USER: genes 2 Torsion [CB]-CA--N-[C] |==|  0.85142
USER: genes 3 Torsion [N]-C--CA-[N] |==|  0.97624
USER: genes 4 Torsion [C]-CA--N-[C] |==|  0.78860
USER: genes 5 Torsion [N]-C--CA-[N] |==|  0.45498
USER: genes 6 Torsion [C]-CA--N-[C] |==|  0.84145
USER: genes 7 Torsion [N]-C--CA-[N] |==|  0.03986
USER: genes 8 Torsion [N]-CA--C-[N] |==|  0.90140
USER: genes 9 Torsion [C]-N--CA-[CB] |==|  0.16713
USER: genes 10 Torsion [N]-CA--C-[N] |==|  0.10278
USER: genes 11 Torsion [C]-N--CA-[CB] |==|  0.84434
USER: genes 12 Torsion [N]-CA--C-[N] |==|  0.39999
USER: genes 13 Torsion [C]-N--CA-[C] |==|  0.76943
USER: genes 14 Torsion [N]-CA--C-[O] |==|  0.99091
ROOT
ATOM      1  CA  ALA E  11       2.293  19.633   2.546  1.00 85.35 LIG 0.17  C 
ATOM      2  CB  ALA E  11       1.211  18.923   3.363  1.00 80.46 LIG 0.04  C 
ENDROOT
BRANCH 1 3
ATOM      3  N   ALA E  11       2.676  20.880   3.198  1.00 87.15 LIG-0.35  N 
ATOM      4  C   ALA E  10       1.749  21.784   3.525  1.00 62.15 LIG 0.24  C 
ATOM      5 O    ALA E  10       0.544  21.535   3.487  1.00 65.72 LIG-0.27  OA
ATOM      6 H    ALA E  11       3.519  20.971   3.343  1.00 87.15 LIG 0.16  HD
BRANCH 4 7
ATOM      7  CA  ALA E  10       2.233  23.163   3.962  1.00 66.45 LIG 0.17  C 
ATOM      8  CB  ALA E  10       1.807  24.221   2.945  1.00 58.63 LIG 0.04  C 
BRANCH 7 9
ATOM      9  N   ALA E  10       3.677  23.202   4.138  1.00 75.43 LIG-0.35  N 
ATOM     10  C   ALA E   9       4.293  22.677   5.195  1.00 82.21 LIG 0.24  C 
ATOM     11 O    ALA E   9       3.696  22.139   6.134  1.00 73.75 LIG-0.27  OA
ATOM     12 H    ALA E  10       4.094  23.596   3.497  1.00 75.43 LIG 0.16  HD
BRANCH 10 13
ATOM     13  CA  ALA E   9       5.811  22.795   5.211  1.00 87.65 LIG 0.17  C 
ATOM     14  CB  ALA E   9       6.447  21.830   4.213  1.00 72.21 LIG 0.04  C 
BRANCH 13 15
ATOM     15  N   ALA E   9       6.266  22.533   6.571  1.00 84.24 LIG-0.35  N 
ATOM     16 H    ALA E   9       6.831  21.887   6.634  1.00 84.24 LIG 0.16  HD
ATOM     17  C   ALA E   8       5.836  23.236   7.610  1.00 61.40 LIG 0.26  C 
ATOM     18 O    ALA E   8       5.102  24.214   7.491  1.00 66.21 LIG-0.27  OA
BRANCH 17 19
ATOM     19  CA  ALA E   8       6.331  22.786   8.981  1.00 67.03 LIG 0.40  C 
ATOM     20  N   ALA E   8       7.481  21.843   8.844  1.00 60.26 LIG 0.61  N 
ATOM     21  CB  ALA E   8       6.728  23.989   9.830  1.00 64.64 LIG 0.06  C 
ENDBRANCH 17 19
ENDBRANCH 13 15
ENDBRANCH 10 13
ENDBRANCH 7 9
ENDBRANCH 4 7
ENDBRANCH 1 3
BRANCH 1 22
ATOM     22  C   ALA E  11       1.807  19.873   1.122  1.00 81.78 LIG 0.24  C 
ATOM     23  N   ALA E  12       1.120  20.990   0.887  1.00 82.91 LIG-0.35  N 
ATOM     24 H    ALA E  12       1.026  21.634   1.449  1.00 82.91 LIG 0.16  HD
ATOM     25 O    ALA E  11       2.037  19.047   0.231  1.00 89.30 LIG-0.27  OA
BRANCH 23 26
ATOM     26  CA  ALA E  12       0.461  21.189  -0.396  1.00 61.10 LIG 0.17  C 
ATOM     27  CB  ALA E  12      -0.579  20.086  -0.652  1.00 65.27 LIG 0.04  C 
BRANCH 26 28
ATOM     28  C   ALA E  12      -0.194  22.560  -0.453  1.00 54.59 LIG 0.24  C 
ATOM     29  N   ALA E  13       0.491  23.531   0.151  1.00 64.78 LIG-0.35  N 
ATOM     30 H    ALA E  13       1.272  23.423   0.493  1.00 64.78 LIG 0.16  HD
ATOM     31 O    ALA E  12      -1.258  22.740  -1.051  1.00 69.11 LIG-0.27  OA
BRANCH 29 32
ATOM     32  CA  ALA E  13      -0.037  24.879   0.283  1.00 54.23 LIG 0.17  C 
ATOM     33  CB  ALA E  13      -0.397  25.436  -1.094  1.00 56.27 LIG 0.04  C 
BRANCH 32 34
ATOM     34  C   ALA E  13      -1.275  24.933   1.160  1.00 65.29 LIG 0.24  C 
ATOM     35  N   ALA E  14      -1.386  26.018   1.919  1.00 85.74 LIG-0.35  N 
ATOM     36 H    ALA E  14      -0.789  26.636   1.952  1.00 85.74 LIG 0.16  HD
ATOM     37 O    ALA E  13      -2.137  24.052   1.108  1.00 75.52 LIG-0.27  OA
BRANCH 35 38
ATOM     38  CA  ALA E  14      -2.535  26.261   2.772  1.00 94.46 LIG 0.16  C 
ATOM     39  CB  ALA E  14      -2.148  27.163   3.922  1.00106.12 LIG 0.04  C 
BRANCH 38 40
ATOM     40  C   ALA E  14      -3.671  26.880   1.965  1.00 99.07 LIG 0.22  C 
ATOM     41 O    ALA E  14      -3.520  27.161   0.776  1.00120.33 LIG-0.29  OA
ENDBRANCH 38 40
ENDBRANCH 35 38
ENDBRANCH 32 34
ENDBRANCH 29 32
ENDBRANCH 26 28
ENDBRANCH 23 26
ENDBRANCH 1 22
TORSDOF 13
ENDMDL
MODEL 86
USER: ADFR SOLUTION from run 163
USER: SCORE 3.845396 LL:  -2.380 LR:  -4.010 RR:   0.000 FEB:  -0.132
USER: RMSD 5.506785
USER: SEED 162
USER: STATUS no improvement in best in 92 clusters for 5 generations
USER: GENES 15
USER: genes 0 Translation |==|  0.61626 0.34679 0.62490
USER: genes 1 Rotation |==|  0.42948 0.36758 0.49214 0.97690
USER: genes 2 Torsion [CB]-CA--N-[C] |==|  0.40403
USER: genes 3 Torsion [N]-C--CA-[N] |==|  0.20605
USER: genes 4 Torsion [C]-CA--N-[C] |==|  0.81111
USER: genes 5 Torsion [N]-C--CA-[N] |==|  0.98412
USER: genes 6 Torsion [C]-CA--N-[C] |==|  0.82167
USER: genes 7 Torsion [N]-C--CA-[N] |==|  0.77130
USER: genes 8 Torsion [N]-CA--C-[N] |==|  0.15513
USER: genes 9 Torsion [C]-N--CA-[CB] |==|  0.86853
USER: genes 10 Torsion [N]-CA--C-[N] |==|  0.84447
USER: genes 11 Torsion [C]-N--CA-[CB] |==|  0.84381
USER: genes 12 Torsion [N]-CA--C-[N] |==|  0.39489
USER: genes 13 Torsion [C]-N--CA-[C] |==|  0.18539
USER: genes 14 Torsion [N]-CA--C-[O] |==|  0.02216
ROOT
ATOM      1  CA  ALA E  11       1.396  20.871   3.442  1.00 85.35 LIG 0.17  C 
ATOM      2  CB  ALA E  11       0.115  21.627   3.801  1.00 80.46 LIG 0.04  C 
ENDROOT
BRANCH 1 3
ATOM      3  N   ALA E  11       2.513  21.802   3.329  1.00 87.15 LIG-0.35  N 
ATOM      4  C   ALA E  10       3.741  21.433   3.702  1.00 62.15 LIG 0.24  C 
ATOM      5 O    ALA E  10       4.028  20.262   3.956  1.00 65.72 LIG-0.27  OA
ATOM      6 H    ALA E  11       2.311  22.576   3.013  1.00 87.15 LIG 0.16  HD
BRANCH 4 7
ATOM      7  CA  ALA E  10       4.804  22.521   3.803  1.00 66.45 LIG 0.17  C 
ATOM      8  CB  ALA E  10       6.200  21.900   3.827  1.00 58.63 LIG 0.04  C 
BRANCH 7 9
ATOM      9  N   ALA E  10       4.617  23.357   4.979  1.00 75.43 LIG-0.35  N 
ATOM     10  C   ALA E   9       3.586  24.187   5.123  1.00 82.21 LIG 0.24  C 
ATOM     11 O    ALA E   9       2.716  24.348   4.260  1.00 73.75 LIG-0.27  OA
ATOM     12 H    ALA E  10       5.234  23.265   5.572  1.00 75.43 LIG 0.16  HD
BRANCH 10 13
ATOM     13  CA  ALA E   9       3.539  24.977   6.424  1.00 87.65 LIG 0.17  C 
ATOM     14  CB  ALA E   9       3.655  26.476   6.159  1.00 72.21 LIG 0.04  C 
BRANCH 13 15
ATOM     15  N   ALA E   9       4.620  24.500   7.277  1.00 84.24 LIG-0.35  N 
ATOM     16 H    ALA E   9       5.221  25.092   7.446  1.00 84.24 LIG 0.16  HD
ATOM     17  C   ALA E   8       4.661  23.260   7.743  1.00 61.40 LIG 0.26  C 
ATOM     18 O    ALA E   8       3.748  22.455   7.569  1.00 66.21 LIG-0.27  OA
BRANCH 17 19
ATOM     19  CA  ALA E   8       5.900  22.880   8.547  1.00 67.03 LIG 0.40  C 
ATOM     20  N   ALA E   8       7.024  22.504   7.637  1.00 60.26 LIG 0.61  N 
ATOM     21  CB  ALA E   8       6.319  24.025   9.463  1.00 64.64 LIG 0.06  C 
ENDBRANCH 17 19
ENDBRANCH 13 15
ENDBRANCH 10 13
ENDBRANCH 7 9
ENDBRANCH 4 7
ENDBRANCH 1 3
BRANCH 1 22
ATOM     22  C   ALA E  11       1.198  20.078   2.157  1.00 81.78 LIG 0.24  C 
ATOM     23  N   ALA E  12       2.238  19.387   1.694  1.00 82.91 LIG-0.35  N 
ATOM     24 H    ALA E  12       2.975  19.266   2.121  1.00 82.91 LIG 0.16  HD
ATOM     25 O    ALA E  11       0.110  20.094   1.568  1.00 89.30 LIG-0.27  OA
BRANCH 23 26
ATOM     26  CA  ALA E  12       2.180  18.768   0.376  1.00 61.10 LIG 0.17  C 
ATOM     27  CB  ALA E  12       0.862  18.000   0.193  1.00 65.27 LIG 0.04  C 
BRANCH 26 28
ATOM     28  C   ALA E  12       2.340  19.817  -0.712  1.00 54.59 LIG 0.24  C 
ATOM     29  N   ALA E  13       1.460  20.817  -0.658  1.00 64.78 LIG-0.35  N 
ATOM     30 H    ALA E  13       0.883  20.912  -0.028  1.00 64.78 LIG 0.16  HD
ATOM     31 O    ALA E  12       3.247  19.746  -1.546  1.00 69.11 LIG-0.27  OA
BRANCH 29 32
ATOM     32  CA  ALA E  13       1.402  21.850  -1.680  1.00 54.23 LIG 0.17  C 
ATOM     33  CB  ALA E  13       2.767  22.525  -1.818  1.00 56.27 LIG 0.04  C 
BRANCH 32 34
ATOM     34  C   ALA E  13       1.002  21.300  -3.038  1.00 65.29 LIG 0.24  C 
ATOM     35  N   ALA E  14       0.206  22.084  -3.755  1.00 85.74 LIG-0.35  N 
ATOM     36 H    ALA E  14      -0.101  22.835  -3.471  1.00 85.74 LIG 0.16  HD
ATOM     37 O    ALA E  13       1.447  20.226  -3.451  1.00 75.52 LIG-0.27  OA
BRANCH 35 38
ATOM     38  CA  ALA E  14      -0.224  21.742  -5.099  1.00 94.46 LIG 0.16  C 
ATOM     39  CB  ALA E  14       0.977  21.484  -5.980  1.00106.12 LIG 0.04  C 
BRANCH 38 40
ATOM     40  C   ALA E  14      -1.137  20.521  -5.068  1.00 99.07 LIG 0.22  C 
ATOM     41 O    ALA E  14      -1.532  20.057  -3.999  1.00120.33 LIG-0.29  OA
ENDBRANCH 38 40
ENDBRANCH 35 38
ENDBRANCH 32 34
ENDBRANCH 29 32
ENDBRANCH 26 28
ENDBRANCH 23 26
ENDBRANCH 1 22
TORSDOF 13
ENDMDL
MODEL 87
USER: ADFR SOLUTION from run 190
USER: SCORE 3.020009 LL:  -2.670 LR:  -4.013 RR:   0.000 FEB:  -0.135
USER: RMSD 4.865323
USER: SEED 189
USER: STATUS no improvement in best in 121 clusters for 5 generations
USER: GENES 15
USER: genes 0 Translation |==|  0.64151 0.35292 0.58423
USER: genes 1 Rotation |==|  0.68963 0.44122 0.54621 0.95657
USER: genes 2 Torsion [CB]-CA--N-[C] |==|  0.28907
USER: genes 3 Torsion [N]-C--CA-[N] |==|  0.06616
USER: genes 4 Torsion [C]-CA--N-[C] |==|  0.57288
USER: genes 5 Torsion [N]-C--CA-[N] |==|  0.52423
USER: genes 6 Torsion [C]-CA--N-[C] |==|  0.58358
USER: genes 7 Torsion [N]-C--CA-[N] |==|  0.53260
USER: genes 8 Torsion [N]-CA--C-[N] |==|  0.88670
USER: genes 9 Torsion [C]-N--CA-[CB] |==|  0.45556
USER: genes 10 Torsion [N]-CA--C-[N] |==|  0.42116
USER: genes 11 Torsion [C]-N--CA-[CB] |==|  0.21908
USER: genes 12 Torsion [N]-CA--C-[N] |==|  0.12757
USER: genes 13 Torsion [C]-N--CA-[C] |==|  0.53075
USER: genes 14 Torsion [N]-CA--C-[O] |==|  0.97233
ROOT
ATOM      1  CA  ALA E  11       1.964  20.982   2.710  1.00 85.35 LIG 0.17  C 
ATOM      2  CB  ALA E  11       0.826  20.439   3.576  1.00 80.46 LIG 0.04  C 
ENDROOT
BRANCH 1 3
ATOM      3  N   ALA E  11       2.655  22.061   3.407  1.00 87.15 LIG-0.35  N 
ATOM      4  C   ALA E  10       3.848  21.849   3.968  1.00 62.15 LIG 0.24  C 
ATOM      5 O    ALA E  10       4.503  20.827   3.757  1.00 65.72 LIG-0.27  OA
ATOM      6 H    ALA E  11       2.236  22.813   3.420  1.00 87.15 LIG 0.16  HD
BRANCH 4 7
ATOM      7  CA  ALA E  10       4.393  22.931   4.894  1.00 66.45 LIG 0.17  C 
ATOM      8  CB  ALA E  10       5.211  22.302   6.021  1.00 58.63 LIG 0.04  C 
BRANCH 7 9
ATOM      9  N   ALA E  10       3.332  23.753   5.455  1.00 75.43 LIG-0.35  N 
ATOM     10  C   ALA E   9       3.520  25.009   5.851  1.00 82.21 LIG 0.24  C 
ATOM     11 O    ALA E   9       4.616  25.579   5.811  1.00 73.75 LIG-0.27  OA
ATOM     12 H    ALA E  10       2.572  23.352   5.506  1.00 75.43 LIG 0.16  HD
BRANCH 10 13
ATOM     13  CA  ALA E   9       2.296  25.729   6.401  1.00 87.65 LIG 0.17  C 
ATOM     14  CB  ALA E   9       1.099  25.566   5.467  1.00 72.21 LIG 0.04  C 
BRANCH 13 15
ATOM     15  N   ALA E   9       2.644  27.132   6.582  1.00 84.24 LIG-0.35  N 
ATOM     16 H    ALA E   9       3.235  27.422   6.028  1.00 84.24 LIG 0.16  HD
ATOM     17  C   ALA E   8       2.091  27.884   7.523  1.00 61.40 LIG 0.26  C 
ATOM     18 O    ALA E   8       1.181  27.481   8.245  1.00 66.21 LIG-0.27  OA
BRANCH 17 19
ATOM     19  CA  ALA E   8       2.622  29.309   7.650  1.00 67.03 LIG 0.40  C 
ATOM     20  N   ALA E   8       2.127  29.945   8.908  1.00 60.26 LIG 0.61  N 
ATOM     21  CB  ALA E   8       4.146  29.320   7.613  1.00 64.64 LIG 0.06  C 
ENDBRANCH 17 19
ENDBRANCH 13 15
ENDBRANCH 10 13
ENDBRANCH 7 9
ENDBRANCH 4 7
ENDBRANCH 1 3
BRANCH 1 22
ATOM     22  C   ALA E  11       1.427  21.442   1.361  1.00 81.78 LIG 0.24  C 
ATOM     23  N   ALA E  12       0.877  22.653   1.298  1.00 82.91 LIG-0.35  N 
ATOM     24 H    ALA E  12       0.902  23.235   1.931  1.00 82.91 LIG 0.16  HD
ATOM     25 O    ALA E  11       1.493  20.702   0.371  1.00 89.30 LIG-0.27  OA
BRANCH 23 26
ATOM     26  CA  ALA E  12       0.172  23.077   0.096  1.00 61.10 LIG 0.17  C 
ATOM     27  CB  ALA E  12      -0.699  24.310   0.382  1.00 65.27 LIG 0.04  C 
BRANCH 26 28
ATOM     28  C   ALA E  12       1.157  23.371  -1.024  1.00 54.59 LIG 0.24  C 
ATOM     29  N   ALA E  13       0.676  23.185  -2.253  1.00 64.78 LIG-0.35  N 
ATOM     30 H    ALA E  13      -0.142  22.979  -2.420  1.00 64.78 LIG 0.16  HD
ATOM     31 O    ALA E  12       2.295  23.785  -0.788  1.00 69.11 LIG-0.27  OA
BRANCH 29 32
ATOM     32  CA  ALA E  13       1.511  23.318  -3.436  1.00 54.23 LIG 0.17  C 
ATOM     33  CB  ALA E  13       2.358  22.059  -3.623  1.00 56.27 LIG 0.04  C 
BRANCH 32 34
ATOM     34  C   ALA E  13       0.696  23.537  -4.699  1.00 65.29 LIG 0.24  C 
ATOM     35  N   ALA E  14      -0.274  24.439  -4.598  1.00 85.74 LIG-0.35  N 
ATOM     36 H    ALA E  14      -0.464  24.851  -3.868  1.00 85.74 LIG 0.16  HD
ATOM     37 O    ALA E  13       0.972  22.954  -5.750  1.00 75.52 LIG-0.27  OA
BRANCH 35 38
ATOM     38  CA  ALA E  14      -1.110  24.816  -5.723  1.00 94.46 LIG 0.16  C 
ATOM     39  CB  ALA E  14      -2.011  23.665  -6.111  1.00106.12 LIG 0.04  C 
BRANCH 38 40
ATOM     40  C   ALA E  14      -1.937  26.050  -5.379  1.00 99.07 LIG 0.22  C 
ATOM     41 O    ALA E  14      -1.982  26.476  -4.225  1.00120.33 LIG-0.29  OA
ENDBRANCH 38 40
ENDBRANCH 35 38
ENDBRANCH 32 34
ENDBRANCH 29 32
ENDBRANCH 26 28
ENDBRANCH 23 26
ENDBRANCH 1 22
TORSDOF 13
ENDMDL
MODEL 88
USER: ADFR SOLUTION from run 84
USER: SCORE 4.204106 LL:  -2.493 LR:  -4.010 RR:   0.000 FEB:  -0.132
USER: RMSD 3.467529
USER: SEED 83
USER: STATUS no improvement in best in 80 clusters for 5 generations
USER: GENES 15
USER: genes 0 Translation |==|  0.63898 0.31954 0.62072
USER: genes 1 Rotation |==|  0.48254 0.34940 0.56646 0.97180
USER: genes 2 Torsion [CB]-CA--N-[C] |==|  0.40654
USER: genes 3 Torsion [N]-C--CA-[N] |==|  0.09775
USER: genes 4 Torsion [C]-CA--N-[C] |==|  0.19435
USER: genes 5 Torsion [N]-C--CA-[N] |==|  0.94918
USER: genes 6 Torsion [C]-CA--N-[C] |==|  0.83300
USER: genes 7 Torsion [N]-C--CA-[N] |==|  0.27339
USER: genes 8 Torsion [N]-CA--C-[N] |==|  0.77141
USER: genes 9 Torsion [C]-N--CA-[CB] |==|  0.17137
USER: genes 10 Torsion [N]-CA--C-[N] |==|  0.09394
USER: genes 11 Torsion [C]-N--CA-[CB] |==|  0.84401
USER: genes 12 Torsion [N]-CA--C-[N] |==|  0.40546
USER: genes 13 Torsion [C]-N--CA-[C] |==|  0.73361
USER: genes 14 Torsion [N]-CA--C-[O] |==|  0.00671
ROOT
ATOM      1  CA  ALA E  11       1.907  20.381   3.367  1.00 85.35 LIG 0.17  C 
ATOM      2  CB  ALA E  11       0.439  20.603   3.734  1.00 80.46 LIG 0.04  C 
ENDROOT
BRANCH 1 3
ATOM      3  N   ALA E  11       2.635  21.644   3.421  1.00 87.15 LIG-0.35  N 
ATOM      4  C   ALA E  10       3.915  21.670   3.802  1.00 62.15 LIG 0.24  C 
ATOM      5 O    ALA E  10       4.587  20.645   3.923  1.00 65.72 LIG-0.27  OA
ATOM      6 H    ALA E  11       2.179  22.337   3.194  1.00 87.15 LIG 0.16  HD
BRANCH 4 7
ATOM      7  CA  ALA E  10       4.537  23.033   4.086  1.00 66.45 LIG 0.17  C 
ATOM      8  CB  ALA E  10       5.751  22.882   5.001  1.00 58.63 LIG 0.04  C 
BRANCH 7 9
ATOM      9  N   ALA E  10       3.582  23.954   4.683  1.00 75.43 LIG-0.35  N 
ATOM     10  C   ALA E   9       3.118  23.814   5.923  1.00 82.21 LIG 0.24  C 
ATOM     11 O    ALA E   9       3.428  22.876   6.665  1.00 73.75 LIG-0.27  OA
ATOM     12 H    ALA E  10       3.345  24.595   4.161  1.00 75.43 LIG 0.16  HD
BRANCH 10 13
ATOM     13  CA  ALA E   9       2.134  24.877   6.393  1.00 87.65 LIG 0.17  C 
ATOM     14  CB  ALA E   9       0.705  24.340   6.392  1.00 72.21 LIG 0.04  C 
BRANCH 13 15
ATOM     15  N   ALA E   9       2.270  26.033   5.516  1.00 84.24 LIG-0.35  N 
ATOM     16 H    ALA E   9       1.550  26.241   5.093  1.00 84.24 LIG 0.16  HD
ATOM     17  C   ALA E   8       3.411  26.696   5.389  1.00 61.40 LIG 0.26  C 
ATOM     18 O    ALA E   8       4.404  26.444   6.069  1.00 66.21 LIG-0.27  OA
BRANCH 17 19
ATOM     19  CA  ALA E   8       3.427  27.827   4.365  1.00 67.03 LIG 0.40  C 
ATOM     20  N   ALA E   8       3.219  29.146   5.034  1.00 60.26 LIG 0.61  N 
ATOM     21  CB  ALA E   8       4.736  27.827   3.584  1.00 64.64 LIG 0.06  C 
ENDBRANCH 17 19
ENDBRANCH 13 15
ENDBRANCH 10 13
ENDBRANCH 7 9
ENDBRANCH 4 7
ENDBRANCH 1 3
BRANCH 1 22
ATOM     22  C   ALA E  11       2.014  19.733   1.992  1.00 81.78 LIG 0.24  C 
ATOM     23  N   ALA E  12       1.184  20.163   1.043  1.00 82.91 LIG-0.35  N 
ATOM     24 H    ALA E  12       0.670  20.849   1.116  1.00 82.91 LIG 0.16  HD
ATOM     25 O    ALA E  11       2.838  18.834   1.782  1.00 89.30 LIG-0.27  OA
BRANCH 23 26
ATOM     26  CA  ALA E  12       1.097  19.459  -0.229  1.00 61.10 LIG 0.17  C 
ATOM     27  CB  ALA E  12       0.617  18.015  -0.021  1.00 65.27 LIG 0.04  C 
BRANCH 26 28
ATOM     28  C   ALA E  12       0.170  20.195  -1.183  1.00 54.59 LIG 0.24  C 
ATOM     29  N   ALA E  13       0.187  21.523  -1.065  1.00 64.78 LIG-0.35  N 
ATOM     30 H    ALA E  13       0.720  21.950  -0.541  1.00 64.78 LIG 0.16  HD
ATOM     31 O    ALA E  12      -0.505  19.590  -2.020  1.00 69.11 LIG-0.27  OA
BRANCH 29 32
ATOM     32  CA  ALA E  13      -0.712  22.376  -1.825  1.00 54.23 LIG 0.17  C 
ATOM     33  CB  ALA E  13      -0.550  22.105  -3.321  1.00 56.27 LIG 0.04  C 
BRANCH 32 34
ATOM     34  C   ALA E  13      -2.169  22.158  -1.455  1.00 65.29 LIG 0.24  C 
ATOM     35  N   ALA E  14      -2.935  23.242  -1.506  1.00 85.74 LIG-0.35  N 
ATOM     36 H    ALA E  14      -2.636  24.025  -1.696  1.00 85.74 LIG 0.16  HD
ATOM     37 O    ALA E  13      -2.602  21.034  -1.190  1.00 75.52 LIG-0.27  OA
BRANCH 35 38
ATOM     38  CA  ALA E  14      -4.362  23.203  -1.243  1.00 94.46 LIG 0.16  C 
ATOM     39  CB  ALA E  14      -4.784  24.436  -0.477  1.00106.12 LIG 0.04  C 
BRANCH 38 40
ATOM     40  C   ALA E  14      -5.139  23.094  -2.550  1.00 99.07 LIG 0.22  C 
ATOM     41 O    ALA E  14      -4.550  23.006  -3.628  1.00120.33 LIG-0.29  OA
ENDBRANCH 38 40
ENDBRANCH 35 38
ENDBRANCH 32 34
ENDBRANCH 29 32
ENDBRANCH 26 28
ENDBRANCH 23 26
ENDBRANCH 1 22
TORSDOF 13
ENDMDL
MODEL 89
USER: ADFR SOLUTION from run 128
USER: SCORE 4.703064 LL:  -2.605 LR:  -4.008 RR:   0.000 FEB:  -0.130
USER: RMSD 3.876726
USER: SEED 127
USER: STATUS no improvement in best in 25 clusters for 5 generations
USER: GENES 15
USER: genes 0 Translation |==|  0.57824 0.24496 0.59041
USER: genes 1 Rotation |==|  0.75544 0.68841 0.59016 0.87566
USER: genes 2 Torsion [CB]-CA--N-[C] |==|  0.19372
USER: genes 3 Torsion [N]-C--CA-[N] |==|  0.45930
USER: genes 4 Torsion [C]-CA--N-[C] |==|  0.63193
USER: genes 5 Torsion [N]-C--CA-[N] |==|  0.16326
USER: genes 6 Torsion [C]-CA--N-[C] |==|  0.78683
USER: genes 7 Torsion [N]-C--CA-[N] |==|  0.39369
USER: genes 8 Torsion [N]-CA--C-[N] |==|  0.09497
USER: genes 9 Torsion [C]-N--CA-[CB] |==|  0.20748
USER: genes 10 Torsion [N]-CA--C-[N] |==|  0.54873
USER: genes 11 Torsion [C]-N--CA-[CB] |==|  0.17217
USER: genes 12 Torsion [N]-CA--C-[N] |==|  0.10291
USER: genes 13 Torsion [C]-N--CA-[C] |==|  0.75735
USER: genes 14 Torsion [N]-CA--C-[O] |==|  0.99082
ROOT
ATOM      1  CA  ALA E  11       0.540  19.038   2.821  1.00 85.35 LIG 0.17  C 
ATOM      2  CB  ALA E  11       0.881  17.941   3.831  1.00 80.46 LIG 0.04  C 
ENDROOT
BRANCH 1 3
ATOM      3  N   ALA E  11       0.978  20.336   3.324  1.00 87.15 LIG-0.35  N 
ATOM      4  C   ALA E  10       2.279  20.623   3.412  1.00 62.15 LIG 0.24  C 
ATOM      5 O    ALA E  10       3.146  19.915   2.898  1.00 65.72 LIG-0.27  OA
ATOM      6 H    ALA E  11       0.344  20.873   3.547  1.00 87.15 LIG 0.16  HD
BRANCH 4 7
ATOM      7  CA  ALA E  10       2.673  21.880   4.179  1.00 66.45 LIG 0.17  C 
ATOM      8  CB  ALA E  10       2.302  23.128   3.380  1.00 58.63 LIG 0.04  C 
BRANCH 7 9
ATOM      9  N   ALA E  10       4.093  21.902   4.496  1.00 75.43 LIG-0.35  N 
ATOM     10  C   ALA E   9       4.562  22.193   5.708  1.00 82.21 LIG 0.24  C 
ATOM     11 O    ALA E   9       3.839  22.503   6.661  1.00 73.75 LIG-0.27  OA
ATOM     12 H    ALA E  10       4.601  21.710   3.829  1.00 75.43 LIG 0.16  HD
BRANCH 10 13
ATOM     13  CA  ALA E   9       6.076  22.156   5.867  1.00 87.65 LIG 0.17  C 
ATOM     14  CB  ALA E   9       6.484  22.478   7.302  1.00 72.21 LIG 0.04  C 
BRANCH 13 15
ATOM     15  N   ALA E   9       6.648  23.108   4.923  1.00 84.24 LIG-0.35  N 
ATOM     16 H    ALA E   9       6.910  23.845   5.282  1.00 84.24 LIG 0.16  HD
ATOM     17  C   ALA E   8       6.751  22.847   3.627  1.00 61.40 LIG 0.26  C 
ATOM     18 O    ALA E   8       6.460  21.754   3.145  1.00 66.21 LIG-0.27  OA
BRANCH 17 19
ATOM     19  CA  ALA E   8       7.287  23.974   2.751  1.00 67.03 LIG 0.40  C 
ATOM     20  N   ALA E   8       8.183  23.433   1.685  1.00 60.26 LIG 0.61  N 
ATOM     21  CB  ALA E   8       6.140  24.764   2.130  1.00 64.64 LIG 0.06  C 
ENDBRANCH 17 19
ENDBRANCH 13 15
ENDBRANCH 10 13
ENDBRANCH 7 9
ENDBRANCH 4 7
ENDBRANCH 1 3
BRANCH 1 22
ATOM     22  C   ALA E  11      -0.953  19.031   2.518  1.00 81.78 LIG 0.24  C 
ATOM     23  N   ALA E  12      -1.493  20.159   2.061  1.00 82.91 LIG-0.35  N 
ATOM     24 H    ALA E  12      -1.045  20.854   1.820  1.00 82.91 LIG 0.16  HD
ATOM     25 O    ALA E  11      -1.629  18.013   2.707  1.00 89.30 LIG-0.27  OA
BRANCH 23 26
ATOM     26  CA  ALA E  12      -2.939  20.283   1.937  1.00 61.10 LIG 0.17  C 
ATOM     27  CB  ALA E  12      -3.590  20.468   3.316  1.00 65.27 LIG 0.04  C 
BRANCH 26 28
ATOM     28  C   ALA E  12      -3.298  21.440   1.019  1.00 54.59 LIG 0.24  C 
ATOM     29  N   ALA E  13      -4.557  21.867   1.125  1.00 64.78 LIG-0.35  N 
ATOM     30 H    ALA E  13      -5.116  21.566   1.706  1.00 64.78 LIG 0.16  HD
ATOM     31 O    ALA E  12      -2.461  21.954   0.272  1.00 69.11 LIG-0.27  OA
BRANCH 29 32
ATOM     32  CA  ALA E  13      -5.099  22.894   0.251  1.00 54.23 LIG 0.17  C 
ATOM     33  CB  ALA E  13      -5.071  22.414  -1.200  1.00 56.27 LIG 0.04  C 
BRANCH 32 34
ATOM     34  C   ALA E  13      -6.530  23.260   0.605  1.00 65.29 LIG 0.24  C 
ATOM     35  N   ALA E  14      -6.807  23.270   1.904  1.00 85.74 LIG-0.35  N 
ATOM     36 H    ALA E  14      -6.240  23.052   2.512  1.00 85.74 LIG 0.16  HD
ATOM     37 O    ALA E  13      -7.344  23.582  -0.264  1.00 75.52 LIG-0.27  OA
BRANCH 35 38
ATOM     38  CA  ALA E  14      -8.107  23.656   2.423  1.00 94.46 LIG 0.16  C 
ATOM     39  CB  ALA E  14      -8.387  22.928   3.718  1.00106.12 LIG 0.04  C 
BRANCH 38 40
ATOM     40  C   ALA E  14      -8.168  25.164   2.632  1.00 99.07 LIG 0.22  C 
ATOM     41 O    ALA E  14      -7.180  25.869   2.428  1.00120.33 LIG-0.29  OA
ENDBRANCH 38 40
ENDBRANCH 35 38
ENDBRANCH 32 34
ENDBRANCH 29 32
ENDBRANCH 26 28
ENDBRANCH 23 26
ENDBRANCH 1 22
TORSDOF 13
ENDMDL
MODEL 90
USER: ADFR SOLUTION from run 119
USER: SCORE 4.110721 LL:  -2.772 LR:  -3.997 RR:   0.000 FEB:  -0.119
USER: RMSD 4.935101
USER: SEED 118
USER: STATUS no improvement in best in 76 clusters for 5 generations
USER: GENES 15
USER: genes 0 Translation |==|  0.57568 0.45698 0.69741
USER: genes 1 Rotation |==|  0.28648 0.55717 0.41202 0.93977
USER: genes 2 Torsion [CB]-CA--N-[C] |==|  0.48622
USER: genes 3 Torsion [N]-C--CA-[N] |==|  0.16908
USER: genes 4 Torsion [C]-CA--N-[C] |==|  0.18888
USER: genes 5 Torsion [N]-C--CA-[N] |==|  0.41214
USER: genes 6 Torsion [C]-CA--N-[C] |==|  0.79099
USER: genes 7 Torsion [N]-C--CA-[N] |==|  0.02289
USER: genes 8 Torsion [N]-CA--C-[N] |==|  0.84492
USER: genes 9 Torsion [C]-N--CA-[CB] |==|  0.17955
USER: genes 10 Torsion [N]-CA--C-[N] |==|  0.09257
USER: genes 11 Torsion [C]-N--CA-[CB] |==|  0.16791
USER: genes 12 Torsion [N]-CA--C-[N] |==|  0.09213
USER: genes 13 Torsion [C]-N--CA-[C] |==|  0.75305
USER: genes 14 Torsion [N]-CA--C-[O] |==|  0.01204
ROOT
ATOM      1  CA  ALA E  11       0.483  22.855   4.747  1.00 85.35 LIG 0.17  C 
ATOM      2  CB  ALA E  11       0.185  24.314   5.096  1.00 80.46 LIG 0.04  C 
ENDROOT
BRANCH 1 3
ATOM      3  N   ALA E  11       1.426  22.786   3.636  1.00 87.15 LIG-0.35  N 
ATOM      4  C   ALA E  10       1.905  21.608   3.228  1.00 62.15 LIG 0.24  C 
ATOM      5 O    ALA E  10       1.436  20.537   3.614  1.00 65.72 LIG-0.27  OA
ATOM      6 H    ALA E  11       1.632  23.545   3.287  1.00 87.15 LIG 0.16  HD
BRANCH 4 7
ATOM      7  CA  ALA E  10       3.071  21.625   2.246  1.00 66.45 LIG 0.17  C 
ATOM      8  CB  ALA E  10       3.430  20.201   1.825  1.00 58.63 LIG 0.04  C 
BRANCH 7 9
ATOM      9  N   ALA E  10       4.242  22.284   2.803  1.00 75.43 LIG-0.35  N 
ATOM     10  C   ALA E   9       4.947  21.779   3.813  1.00 82.21 LIG 0.24  C 
ATOM     11 O    ALA E   9       4.654  20.726   4.389  1.00 73.75 LIG-0.27  OA
ATOM     12 H    ALA E  10       4.436  23.030   2.420  1.00 75.43 LIG 0.16  HD
BRANCH 10 13
ATOM     13  CA  ALA E   9       6.153  22.594   4.261  1.00 87.65 LIG 0.17  C 
ATOM     14  CB  ALA E   9       7.405  22.196   3.483  1.00 72.21 LIG 0.04  C 
BRANCH 13 15
ATOM     15  N   ALA E   9       6.327  22.385   5.693  1.00 84.24 LIG-0.35  N 
ATOM     16 H    ALA E   9       6.981  21.864   5.896  1.00 84.24 LIG 0.16  HD
ATOM     17  C   ALA E   8       5.538  22.955   6.593  1.00 61.40 LIG 0.26  C 
ATOM     18 O    ALA E   8       4.668  23.771   6.293  1.00 66.21 LIG-0.27  OA
BRANCH 17 19
ATOM     19  CA  ALA E   8       5.785  22.571   8.049  1.00 67.03 LIG 0.40  C 
ATOM     20  N   ALA E   8       7.029  21.754   8.174  1.00 60.26 LIG 0.61  N 
ATOM     21  CB  ALA E   8       5.876  23.815   8.926  1.00 64.64 LIG 0.06  C 
ENDBRANCH 17 19
ENDBRANCH 13 15
ENDBRANCH 10 13
ENDBRANCH 7 9
ENDBRANCH 4 7
ENDBRANCH 1 3
BRANCH 1 22
ATOM     22  C   ALA E  11      -0.810  22.114   4.429  1.00 81.78 LIG 0.24  C 
ATOM     23  N   ALA E  12      -1.471  22.475   3.331  1.00 82.91 LIG-0.35  N 
ATOM     24 H    ALA E  12      -1.170  23.015   2.733  1.00 82.91 LIG 0.16  HD
ATOM     25 O    ALA E  11      -1.224  21.221   5.178  1.00 89.30 LIG-0.27  OA
BRANCH 23 26
ATOM     26  CA  ALA E  12      -2.805  21.948   3.072  1.00 61.10 LIG 0.17  C 
ATOM     27  CB  ALA E  12      -3.798  22.430   4.141  1.00 65.27 LIG 0.04  C 
BRANCH 26 28
ATOM     28  C   ALA E  12      -3.278  22.354   1.685  1.00 54.59 LIG 0.24  C 
ATOM     29  N   ALA E  13      -2.313  22.441   0.769  1.00 64.78 LIG-0.35  N 
ATOM     30 H    ALA E  13      -1.494  22.226   0.916  1.00 64.78 LIG 0.16  HD
ATOM     31 O    ALA E  12      -4.473  22.545   1.444  1.00 69.11 LIG-0.27  OA
BRANCH 29 32
ATOM     32  CA  ALA E  13      -2.572  22.917  -0.580  1.00 54.23 LIG 0.17  C 
ATOM     33  CB  ALA E  13      -3.107  24.348  -0.536  1.00 56.27 LIG 0.04  C 
BRANCH 32 34
ATOM     34  C   ALA E  13      -1.327  22.898  -1.449  1.00 65.29 LIG 0.24  C 
ATOM     35  N   ALA E  14      -0.470  21.918  -1.190  1.00 85.74 LIG-0.35  N 
ATOM     36 H    ALA E  14      -0.578  21.348  -0.556  1.00 85.74 LIG 0.16  HD
ATOM     37 O    ALA E  13      -1.173  23.709  -2.366  1.00 75.52 LIG-0.27  OA
BRANCH 35 38
ATOM     38  CA  ALA E  14       0.742  21.715  -1.964  1.00 94.46 LIG 0.16  C 
ATOM     39  CB  ALA E  14       1.826  21.129  -1.088  1.00106.12 LIG 0.04  C 
BRANCH 38 40
ATOM     40  C   ALA E  14       0.465  20.803  -3.154  1.00 99.07 LIG 0.22  C 
ATOM     41 O    ALA E  14      -0.677  20.413  -3.397  1.00120.33 LIG-0.29  OA
ENDBRANCH 38 40
ENDBRANCH 35 38
ENDBRANCH 32 34
ENDBRANCH 29 32
ENDBRANCH 26 28
ENDBRANCH 23 26
ENDBRANCH 1 22
TORSDOF 13
ENDMDL
MODEL 91
USER: ADFR SOLUTION from run 6
USER: SCORE 5.406360 LL:  -2.613 LR:  -3.997 RR:   0.000 FEB:  -0.119
USER: RMSD 4.985192
USER: SEED 322608
USER: STATUS no improvement in best in 62 clusters for 5 generations
USER: GENES 15
USER: genes 0 Translation |==|  0.65610 0.34029 0.56638
USER: genes 1 Rotation |==|  0.61727 0.47825 0.44686 0.98265
USER: genes 2 Torsion [CB]-CA--N-[C] |==|  0.16228
USER: genes 3 Torsion [N]-C--CA-[N] |==|  0.30436
USER: genes 4 Torsion [C]-CA--N-[C] |==|  0.86718
USER: genes 5 Torsion [N]-C--CA-[N] |==|  0.97213
USER: genes 6 Torsion [C]-CA--N-[C] |==|  0.80018
USER: genes 7 Torsion [N]-C--CA-[N] |==|  0.32399
USER: genes 8 Torsion [N]-CA--C-[N] |==|  0.07865
USER: genes 9 Torsion [C]-N--CA-[CB] |==|  0.84377
USER: genes 10 Torsion [N]-CA--C-[N] |==|  0.45749
USER: genes 11 Torsion [C]-N--CA-[CB] |==|  0.16928
USER: genes 12 Torsion [N]-CA--C-[N] |==|  0.09672
USER: genes 13 Torsion [C]-N--CA-[C] |==|  0.57568
USER: genes 14 Torsion [N]-CA--C-[O] |==|  0.02209
ROOT
ATOM      1  CA  ALA E  11       2.292  20.754   2.389  1.00 85.35 LIG 0.17  C 
ATOM      2  CB  ALA E  11       1.370  20.878   3.603  1.00 80.46 LIG 0.04  C 
ENDROOT
BRANCH 1 3
ATOM      3  N   ALA E  11       3.456  21.618   2.552  1.00 87.15 LIG-0.35  N 
ATOM      4  C   ALA E  10       4.267  21.468   3.603  1.00 62.15 LIG 0.24  C 
ATOM      5 O    ALA E  10       4.198  20.494   4.354  1.00 65.72 LIG-0.27  OA
ATOM      6 H    ALA E  11       3.563  22.206   1.933  1.00 87.15 LIG 0.16  HD
BRANCH 4 7
ATOM      7  CA  ALA E  10       5.305  22.556   3.853  1.00 66.45 LIG 0.17  C 
ATOM      8  CB  ALA E  10       6.696  21.941   3.995  1.00 58.63 LIG 0.04  C 
BRANCH 7 9
ATOM      9  N   ALA E  10       4.993  23.346   5.035  1.00 75.43 LIG-0.35  N 
ATOM     10  C   ALA E   9       3.784  23.851   5.272  1.00 82.21 LIG 0.24  C 
ATOM     11 O    ALA E   9       2.829  23.725   4.496  1.00 73.75 LIG-0.27  OA
ATOM     12 H    ALA E  10       5.661  23.455   5.566  1.00 75.43 LIG 0.16  HD
BRANCH 10 13
ATOM     13  CA  ALA E   9       3.629  24.640   6.565  1.00 87.65 LIG 0.17  C 
ATOM     14  CB  ALA E   9       3.390  26.121   6.277  1.00 72.21 LIG 0.04  C 
BRANCH 13 15
ATOM     15  N   ALA E   9       4.835  24.440   7.358  1.00 84.24 LIG-0.35  N 
ATOM     16 H    ALA E   9       5.348  25.129   7.399  1.00 84.24 LIG 0.16  HD
ATOM     17  C   ALA E   8       5.104  23.289   7.960  1.00 61.40 LIG 0.26  C 
ATOM     18 O    ALA E   8       4.316  22.345   7.971  1.00 66.21 LIG-0.27  OA
BRANCH 17 19
ATOM     19  CA  ALA E   8       6.446  23.200   8.679  1.00 67.03 LIG 0.40  C 
ATOM     20  N   ALA E   8       6.246  23.004  10.146  1.00 60.26 LIG 0.61  N 
ATOM     21  CB  ALA E   8       7.291  22.069   8.103  1.00 64.64 LIG 0.06  C 
ENDBRANCH 17 19
ENDBRANCH 13 15
ENDBRANCH 10 13
ENDBRANCH 7 9
ENDBRANCH 4 7
ENDBRANCH 1 3
BRANCH 1 22
ATOM     22  C   ALA E  11       1.529  21.082   1.112  1.00 81.78 LIG 0.24  C 
ATOM     23  N   ALA E  12       2.221  21.595   0.096  1.00 82.91 LIG-0.35  N 
ATOM     24 H    ALA E  12       3.079  21.653   0.067  1.00 82.91 LIG 0.16  HD
ATOM     25 O    ALA E  11       0.310  20.885   1.039  1.00 89.30 LIG-0.27  OA
BRANCH 23 26
ATOM     26  CA  ALA E  12       1.528  22.111  -1.077  1.00 61.10 LIG 0.17  C 
ATOM     27  CB  ALA E  12       0.623  21.033  -1.693  1.00 65.27 LIG 0.04  C 
BRANCH 26 28
ATOM     28  C   ALA E  12       0.715  23.344  -0.716  1.00 54.59 LIG 0.24  C 
ATOM     29  N   ALA E  13       0.309  24.070  -1.758  1.00 64.78 LIG-0.35  N 
ATOM     30 H    ALA E  13       0.431  23.839  -2.578  1.00 64.78 LIG 0.16  HD
ATOM     31 O    ALA E  12       0.434  23.610   0.455  1.00 69.11 LIG-0.27  OA
BRANCH 29 32
ATOM     32  CA  ALA E  13      -0.389  25.335  -1.593  1.00 54.23 LIG 0.17  C 
ATOM     33  CB  ALA E  13       0.502  26.328  -0.846  1.00 56.27 LIG 0.04  C 
BRANCH 32 34
ATOM     34  C   ALA E  13      -0.787  25.954  -2.920  1.00 65.29 LIG 0.24  C 
ATOM     35  N   ALA E  14      -1.130  25.090  -3.869  1.00 85.74 LIG-0.35  N 
ATOM     36 H    ALA E  14      -1.098  24.238  -3.768  1.00 85.74 LIG 0.16  HD
ATOM     37 O    ALA E  13      -0.842  27.178  -3.066  1.00 75.52 LIG-0.27  OA
BRANCH 35 38
ATOM     38  CA  ALA E  14      -1.595  25.511  -5.178  1.00 94.46 LIG 0.16  C 
ATOM     39  CB  ALA E  14      -0.417  25.776  -6.089  1.00106.12 LIG 0.04  C 
BRANCH 38 40
ATOM     40  C   ALA E  14      -2.510  24.452  -5.782  1.00 99.07 LIG 0.22  C 
ATOM     41 O    ALA E  14      -2.879  23.485  -5.115  1.00120.33 LIG-0.29  OA
ENDBRANCH 38 40
ENDBRANCH 35 38
ENDBRANCH 32 34
ENDBRANCH 29 32
ENDBRANCH 26 28
ENDBRANCH 23 26
ENDBRANCH 1 22
TORSDOF 13
ENDMDL
MODEL 92
USER: ADFR SOLUTION from run 163
USER: SCORE 4.133599 LL:  -2.387 LR:  -4.005 RR:   0.000 FEB:  -0.127
USER: RMSD 4.140123
USER: SEED 162
USER: STATUS no improvement in best in 92 clusters for 5 generations
USER: GENES 15
USER: genes 0 Translation |==|  0.61626 0.34679 0.62490
USER: genes 1 Rotation |==|  0.42948 0.36758 0.49214 0.97690
USER: genes 2 Torsion [CB]-CA--N-[C] |==|  0.40403
USER: genes 3 Torsion [N]-C--CA-[N] |==|  0.20605
USER: genes 4 Torsion [C]-CA--N-[C] |==|  0.81111
USER: genes 5 Torsion [N]-C--CA-[N] |==|  0.98412
USER: genes 6 Torsion [C]-CA--N-[C] |==|  0.82167
USER: genes 7 Torsion [N]-C--CA-[N] |==|  0.77130
USER: genes 8 Torsion [N]-CA--C-[N] |==|  0.98326
USER: genes 9 Torsion [C]-N--CA-[CB] |==|  0.84219
USER: genes 10 Torsion [N]-CA--C-[N] |==|  0.40765
USER: genes 11 Torsion [C]-N--CA-[CB] |==|  0.83496
USER: genes 12 Torsion [N]-CA--C-[N] |==|  0.38638
USER: genes 13 Torsion [C]-N--CA-[C] |==|  0.75615
USER: genes 14 Torsion [N]-CA--C-[O] |==|  0.99250
ROOT
ATOM      1  CA  ALA E  11       1.396  20.871   3.442  1.00 85.35 LIG 0.17  C 
ATOM      2  CB  ALA E  11       0.115  21.627   3.801  1.00 80.46 LIG 0.04  C 
ENDROOT
BRANCH 1 3
ATOM      3  N   ALA E  11       2.513  21.802   3.329  1.00 87.15 LIG-0.35  N 
ATOM      4  C   ALA E  10       3.741  21.433   3.702  1.00 62.15 LIG 0.24  C 
ATOM      5 O    ALA E  10       4.028  20.262   3.956  1.00 65.72 LIG-0.27  OA
ATOM      6 H    ALA E  11       2.311  22.576   3.013  1.00 87.15 LIG 0.16  HD
BRANCH 4 7
ATOM      7  CA  ALA E  10       4.804  22.521   3.803  1.00 66.45 LIG 0.17  C 
ATOM      8  CB  ALA E  10       6.200  21.900   3.827  1.00 58.63 LIG 0.04  C 
BRANCH 7 9
ATOM      9  N   ALA E  10       4.617  23.357   4.979  1.00 75.43 LIG-0.35  N 
ATOM     10  C   ALA E   9       3.586  24.187   5.123  1.00 82.21 LIG 0.24  C 
ATOM     11 O    ALA E   9       2.716  24.348   4.260  1.00 73.75 LIG-0.27  OA
ATOM     12 H    ALA E  10       5.234  23.265   5.572  1.00 75.43 LIG 0.16  HD
BRANCH 10 13
ATOM     13  CA  ALA E   9       3.539  24.977   6.424  1.00 87.65 LIG 0.17  C 
ATOM     14  CB  ALA E   9       3.655  26.476   6.159  1.00 72.21 LIG 0.04  C 
BRANCH 13 15
ATOM     15  N   ALA E   9       4.620  24.500   7.277  1.00 84.24 LIG-0.35  N 
ATOM     16 H    ALA E   9       5.221  25.092   7.446  1.00 84.24 LIG 0.16  HD
ATOM     17  C   ALA E   8       4.661  23.260   7.743  1.00 61.40 LIG 0.26  C 
ATOM     18 O    ALA E   8       3.748  22.455   7.569  1.00 66.21 LIG-0.27  OA
BRANCH 17 19
ATOM     19  CA  ALA E   8       5.900  22.880   8.547  1.00 67.03 LIG 0.40  C 
ATOM     20  N   ALA E   8       7.024  22.504   7.637  1.00 60.26 LIG 0.61  N 
ATOM     21  CB  ALA E   8       6.319  24.025   9.463  1.00 64.64 LIG 0.06  C 
ENDBRANCH 17 19
ENDBRANCH 13 15
ENDBRANCH 10 13
ENDBRANCH 7 9
ENDBRANCH 4 7
ENDBRANCH 1 3
BRANCH 1 22
ATOM     22  C   ALA E  11       1.198  20.078   2.157  1.00 81.78 LIG 0.24  C 
ATOM     23  N   ALA E  12       1.948  20.410   1.107  1.00 82.91 LIG-0.35  N 
ATOM     24 H    ALA E  12       2.608  20.961   1.132  1.00 82.91 LIG 0.16  HD
ATOM     25 O    ALA E  11       0.359  19.170   2.100  1.00 89.30 LIG-0.27  OA
BRANCH 23 26
ATOM     26  CA  ALA E  12       1.676  19.830  -0.201  1.00 61.10 LIG 0.17  C 
ATOM     27  CB  ALA E  12       1.726  18.296  -0.137  1.00 65.27 LIG 0.04  C 
BRANCH 26 28
ATOM     28  C   ALA E  12       0.327  20.297  -0.722  1.00 54.59 LIG 0.24  C 
ATOM     29  N   ALA E  13       0.258  20.441  -2.045  1.00 64.78 LIG-0.35  N 
ATOM     30 H    ALA E  13       0.895  20.229  -2.583  1.00 64.78 LIG 0.16  HD
ATOM     31 O    ALA E  12      -0.627  20.484   0.039  1.00 69.11 LIG-0.27  OA
BRANCH 29 32
ATOM     32  CA  ALA E  13      -0.922  20.979  -2.703  1.00 54.23 LIG 0.17  C 
ATOM     33  CB  ALA E  13      -2.138  20.105  -2.390  1.00 56.27 LIG 0.04  C 
BRANCH 32 34
ATOM     34  C   ALA E  13      -1.231  22.400  -2.267  1.00 65.29 LIG 0.24  C 
ATOM     35  N   ALA E  14      -1.617  23.219  -3.239  1.00 85.74 LIG-0.35  N 
ATOM     36 H    ALA E  14      -1.658  22.988  -4.065  1.00 85.74 LIG 0.16  HD
ATOM     37 O    ALA E  13      -1.181  22.733  -1.081  1.00 75.52 LIG-0.27  OA
BRANCH 35 38
ATOM     38  CA  ALA E  14      -2.009  24.595  -2.991  1.00 94.46 LIG 0.16  C 
ATOM     39  CB  ALA E  14      -1.687  25.452  -4.194  1.00106.12 LIG 0.04  C 
BRANCH 38 40
ATOM     40  C   ALA E  14      -3.496  24.671  -2.662  1.00 99.07 LIG 0.22  C 
ATOM     41 O    ALA E  14      -4.199  23.661  -2.682  1.00120.33 LIG-0.29  OA
ENDBRANCH 38 40
ENDBRANCH 35 38
ENDBRANCH 32 34
ENDBRANCH 29 32
ENDBRANCH 26 28
ENDBRANCH 23 26
ENDBRANCH 1 22
TORSDOF 13
ENDMDL
MODEL 93
USER: ADFR SOLUTION from run 148
USER: SCORE 5.143895 LL:  -1.923 LR:  -4.002 RR:   0.000 FEB:  -0.125
USER: RMSD 5.152993
USER: SEED 147
USER: STATUS searching
USER: GENES 15
USER: genes 0 Translation |==|  0.65613 0.27799 0.57512
USER: genes 1 Rotation |==|  0.67413 0.44300 0.60469 0.95329
USER: genes 2 Torsion [CB]-CA--N-[C] |==|  0.85142
USER: genes 3 Torsion [N]-C--CA-[N] |==|  0.97624
USER: genes 4 Torsion [C]-CA--N-[C] |==|  0.78860
USER: genes 5 Torsion [N]-C--CA-[N] |==|  0.45498
USER: genes 6 Torsion [C]-CA--N-[C] |==|  0.84145
USER: genes 7 Torsion [N]-C--CA-[N] |==|  0.03986
USER: genes 8 Torsion [N]-CA--C-[N] |==|  0.93346
USER: genes 9 Torsion [C]-N--CA-[CB] |==|  0.16018
USER: genes 10 Torsion [N]-CA--C-[N] |==|  0.08843
USER: genes 11 Torsion [C]-N--CA-[CB] |==|  0.52778
USER: genes 12 Torsion [N]-CA--C-[N] |==|  0.42272
USER: genes 13 Torsion [C]-N--CA-[C] |==|  0.17223
USER: genes 14 Torsion [N]-CA--C-[O] |==|  0.10764
ROOT
ATOM      1  CA  ALA E  11       2.293  19.633   2.546  1.00 85.35 LIG 0.17  C 
ATOM      2  CB  ALA E  11       1.211  18.923   3.363  1.00 80.46 LIG 0.04  C 
ENDROOT
BRANCH 1 3
ATOM      3  N   ALA E  11       2.676  20.880   3.198  1.00 87.15 LIG-0.35  N 
ATOM      4  C   ALA E  10       1.749  21.784   3.525  1.00 62.15 LIG 0.24  C 
ATOM      5 O    ALA E  10       0.544  21.535   3.487  1.00 65.72 LIG-0.27  OA
ATOM      6 H    ALA E  11       3.519  20.971   3.343  1.00 87.15 LIG 0.16  HD
BRANCH 4 7
ATOM      7  CA  ALA E  10       2.233  23.163   3.962  1.00 66.45 LIG 0.17  C 
ATOM      8  CB  ALA E  10       1.807  24.221   2.945  1.00 58.63 LIG 0.04  C 
BRANCH 7 9
ATOM      9  N   ALA E  10       3.677  23.202   4.138  1.00 75.43 LIG-0.35  N 
ATOM     10  C   ALA E   9       4.293  22.677   5.195  1.00 82.21 LIG 0.24  C 
ATOM     11 O    ALA E   9       3.696  22.139   6.134  1.00 73.75 LIG-0.27  OA
ATOM     12 H    ALA E  10       4.094  23.596   3.497  1.00 75.43 LIG 0.16  HD
BRANCH 10 13
ATOM     13  CA  ALA E   9       5.811  22.795   5.211  1.00 87.65 LIG 0.17  C 
ATOM     14  CB  ALA E   9       6.447  21.830   4.213  1.00 72.21 LIG 0.04  C 
BRANCH 13 15
ATOM     15  N   ALA E   9       6.266  22.533   6.571  1.00 84.24 LIG-0.35  N 
ATOM     16 H    ALA E   9       6.831  21.887   6.634  1.00 84.24 LIG 0.16  HD
ATOM     17  C   ALA E   8       5.836  23.236   7.610  1.00 61.40 LIG 0.26  C 
ATOM     18 O    ALA E   8       5.102  24.214   7.491  1.00 66.21 LIG-0.27  OA
BRANCH 17 19
ATOM     19  CA  ALA E   8       6.331  22.786   8.981  1.00 67.03 LIG 0.40  C 
ATOM     20  N   ALA E   8       7.481  21.843   8.844  1.00 60.26 LIG 0.61  N 
ATOM     21  CB  ALA E   8       6.728  23.989   9.830  1.00 64.64 LIG 0.06  C 
ENDBRANCH 17 19
ENDBRANCH 13 15
ENDBRANCH 10 13
ENDBRANCH 7 9
ENDBRANCH 4 7
ENDBRANCH 1 3
BRANCH 1 22
ATOM     22  C   ALA E  11       1.807  19.873   1.122  1.00 81.78 LIG 0.24  C 
ATOM     23  N   ALA E  12       1.331  21.083   0.831  1.00 82.91 LIG-0.35  N 
ATOM     24 H    ALA E  12       1.380  21.766   1.351  1.00 82.91 LIG 0.16  HD
ATOM     25 O    ALA E  11       1.846  18.966   0.282  1.00 89.30 LIG-0.27  OA
BRANCH 23 26
ATOM     26  CA  ALA E  12       0.673  21.323  -0.446  1.00 61.10 LIG 0.17  C 
ATOM     27  CB  ALA E  12      -0.526  20.379  -0.627  1.00 65.27 LIG 0.04  C 
BRANCH 26 28
ATOM     28  C   ALA E  12       0.228  22.773  -0.551  1.00 54.59 LIG 0.24  C 
ATOM     29  N   ALA E  13       1.010  23.645   0.085  1.00 64.78 LIG-0.35  N 
ATOM     30 H    ALA E  13       1.747  23.431   0.474  1.00 64.78 LIG 0.16  HD
ATOM     31 O    ALA E  12      -0.762  23.096  -1.213  1.00 69.11 LIG-0.27  OA
BRANCH 29 32
ATOM     32  CA  ALA E  13       0.677  25.058   0.175  1.00 54.23 LIG 0.17  C 
ATOM     33  CB  ALA E  13       1.865  25.840   0.737  1.00 56.27 LIG 0.04  C 
BRANCH 32 34
ATOM     34  C   ALA E  13       0.308  25.653  -1.172  1.00 65.29 LIG 0.24  C 
ATOM     35  N   ALA E  14      -0.524  26.687  -1.126  1.00 85.74 LIG-0.35  N 
ATOM     36 H    ALA E  14      -0.868  26.987  -0.398  1.00 85.74 LIG 0.16  HD
ATOM     37 O    ALA E  13       0.806  25.230  -2.218  1.00 75.52 LIG-0.27  OA
BRANCH 35 38
ATOM     38  CA  ALA E  14      -0.934  27.414  -2.314  1.00 94.46 LIG 0.16  C 
ATOM     39  CB  ALA E  14       0.273  28.014  -2.999  1.00106.12 LIG 0.04  C 
BRANCH 38 40
ATOM     40  C   ALA E  14      -1.686  26.491  -3.267  1.00 99.07 LIG 0.22  C 
ATOM     41 O    ALA E  14      -2.470  25.645  -2.837  1.00120.33 LIG-0.29  OA
ENDBRANCH 38 40
ENDBRANCH 35 38
ENDBRANCH 32 34
ENDBRANCH 29 32
ENDBRANCH 26 28
ENDBRANCH 23 26
ENDBRANCH 1 22
TORSDOF 13
ENDMDL
MODEL 94
USER: ADFR SOLUTION from run 163
USER: SCORE 4.055075 LL:  -2.716 LR:  -4.001 RR:   0.000 FEB:  -0.123
USER: RMSD 4.780373
USER: SEED 162
USER: STATUS no improvement in best in 92 clusters for 5 generations
USER: GENES 15
USER: genes 0 Translation |==|  0.61626 0.34679 0.62490
USER: genes 1 Rotation |==|  0.42948 0.36758 0.49214 0.97690
USER: genes 2 Torsion [CB]-CA--N-[C] |==|  0.40403
USER: genes 3 Torsion [N]-C--CA-[N] |==|  0.20605
USER: genes 4 Torsion [C]-CA--N-[C] |==|  0.81111
USER: genes 5 Torsion [N]-C--CA-[N] |==|  0.98412
USER: genes 6 Torsion [C]-CA--N-[C] |==|  0.82167
USER: genes 7 Torsion [N]-C--CA-[N] |==|  0.77130
USER: genes 8 Torsion [N]-CA--C-[N] |==|  0.88959
USER: genes 9 Torsion [C]-N--CA-[CB] |==|  0.81610
USER: genes 10 Torsion [N]-CA--C-[N] |==|  0.19789
USER: genes 11 Torsion [C]-N--CA-[CB] |==|  0.85255
USER: genes 12 Torsion [N]-CA--C-[N] |==|  0.39301
USER: genes 13 Torsion [C]-N--CA-[C] |==|  0.62191
USER: genes 14 Torsion [N]-CA--C-[O] |==|  0.99252
ROOT
ATOM      1  CA  ALA E  11       1.396  20.871   3.442  1.00 85.35 LIG 0.17  C 
ATOM      2  CB  ALA E  11       0.115  21.627   3.801  1.00 80.46 LIG 0.04  C 
ENDROOT
BRANCH 1 3
ATOM      3  N   ALA E  11       2.513  21.802   3.329  1.00 87.15 LIG-0.35  N 
ATOM      4  C   ALA E  10       3.741  21.433   3.702  1.00 62.15 LIG 0.24  C 
ATOM      5 O    ALA E  10       4.028  20.262   3.956  1.00 65.72 LIG-0.27  OA
ATOM      6 H    ALA E  11       2.311  22.576   3.013  1.00 87.15 LIG 0.16  HD
BRANCH 4 7
ATOM      7  CA  ALA E  10       4.804  22.521   3.803  1.00 66.45 LIG 0.17  C 
ATOM      8  CB  ALA E  10       6.200  21.900   3.827  1.00 58.63 LIG 0.04  C 
BRANCH 7 9
ATOM      9  N   ALA E  10       4.617  23.357   4.979  1.00 75.43 LIG-0.35  N 
ATOM     10  C   ALA E   9       3.586  24.187   5.123  1.00 82.21 LIG 0.24  C 
ATOM     11 O    ALA E   9       2.716  24.348   4.260  1.00 73.75 LIG-0.27  OA
ATOM     12 H    ALA E  10       5.234  23.265   5.572  1.00 75.43 LIG 0.16  HD
BRANCH 10 13
ATOM     13  CA  ALA E   9       3.539  24.977   6.424  1.00 87.65 LIG 0.17  C 
ATOM     14  CB  ALA E   9       3.655  26.476   6.159  1.00 72.21 LIG 0.04  C 
BRANCH 13 15
ATOM     15  N   ALA E   9       4.620  24.500   7.277  1.00 84.24 LIG-0.35  N 
ATOM     16 H    ALA E   9       5.221  25.092   7.446  1.00 84.24 LIG 0.16  HD
ATOM     17  C   ALA E   8       4.661  23.260   7.743  1.00 61.40 LIG 0.26  C 
ATOM     18 O    ALA E   8       3.748  22.455   7.569  1.00 66.21 LIG-0.27  OA
BRANCH 17 19
ATOM     19  CA  ALA E   8       5.900  22.880   8.547  1.00 67.03 LIG 0.40  C 
ATOM     20  N   ALA E   8       7.024  22.504   7.637  1.00 60.26 LIG 0.61  N 
ATOM     21  CB  ALA E   8       6.319  24.025   9.463  1.00 64.64 LIG 0.06  C 
ENDBRANCH 17 19
ENDBRANCH 13 15
ENDBRANCH 10 13
ENDBRANCH 7 9
ENDBRANCH 4 7
ENDBRANCH 1 3
BRANCH 1 22
ATOM     22  C   ALA E  11       1.198  20.078   2.157  1.00 81.78 LIG 0.24  C 
ATOM     23  N   ALA E  12       1.349  20.727   1.004  1.00 82.91 LIG-0.35  N 
ATOM     24 H    ALA E  12       1.656  21.528   0.929  1.00 82.91 LIG 0.16  HD
ATOM     25 O    ALA E  11       0.896  18.879   2.197  1.00 89.30 LIG-0.27  OA
BRANCH 23 26
ATOM     26  CA  ALA E  12       0.985  20.086  -0.252  1.00 61.10 LIG 0.17  C 
ATOM     27  CB  ALA E  12       1.909  18.893  -0.542  1.00 65.27 LIG 0.04  C 
BRANCH 26 28
ATOM     28  C   ALA E  12      -0.467  19.639  -0.222  1.00 54.59 LIG 0.24  C 
ATOM     29  N   ALA E  13      -1.358  20.629  -0.274  1.00 64.78 LIG-0.35  N 
ATOM     30 H    ALA E  13      -1.147  21.456  -0.383  1.00 64.78 LIG 0.16  HD
ATOM     31 O    ALA E  12      -0.772  18.443  -0.190  1.00 69.11 LIG-0.27  OA
BRANCH 29 32
ATOM     32  CA  ALA E  13      -2.787  20.389  -0.151  1.00 54.23 LIG 0.17  C 
ATOM     33  CB  ALA E  13      -3.227  19.328  -1.159  1.00 56.27 LIG 0.04  C 
BRANCH 32 34
ATOM     34  C   ALA E  13      -3.177  19.919   1.239  1.00 65.29 LIG 0.24  C 
ATOM     35  N   ALA E  14      -4.323  20.406   1.702  1.00 85.74 LIG-0.35  N 
ATOM     36 H    ALA E  14      -4.802  20.976   1.274  1.00 85.74 LIG 0.16  HD
ATOM     37 O    ALA E  13      -2.495  19.094   1.852  1.00 75.52 LIG-0.27  OA
BRANCH 35 38
ATOM     38  CA  ALA E  14      -4.876  20.015   2.986  1.00 94.46 LIG 0.16  C 
ATOM     39  CB  ALA E  14      -4.607  21.088   4.016  1.00106.12 LIG 0.04  C 
BRANCH 38 40
ATOM     40  C   ALA E  14      -6.373  19.757   2.861  1.00 99.07 LIG 0.22  C 
ATOM     41 O    ALA E  14      -6.956  19.934   1.791  1.00120.33 LIG-0.29  OA
ENDBRANCH 38 40
ENDBRANCH 35 38
ENDBRANCH 32 34
ENDBRANCH 29 32
ENDBRANCH 26 28
ENDBRANCH 23 26
ENDBRANCH 1 22
TORSDOF 13
ENDMDL
MODEL 95
USER: ADFR SOLUTION from run 160
USER: SCORE 4.571915 LL:  -2.356 LR:  -4.004 RR:   0.000 FEB:  -0.126
USER: RMSD 3.490714
USER: SEED 159
USER: STATUS no improvement in best in 28 clusters for 5 generations
USER: GENES 15
USER: genes 0 Translation |==|  0.57340 0.27597 0.56353
USER: genes 1 Rotation |==|  0.76410 0.67003 0.56698 0.88322
USER: genes 2 Torsion [CB]-CA--N-[C] |==|  0.11976
USER: genes 3 Torsion [N]-C--CA-[N] |==|  0.53853
USER: genes 4 Torsion [C]-CA--N-[C] |==|  0.65109
USER: genes 5 Torsion [N]-C--CA-[N] |==|  0.15211
USER: genes 6 Torsion [C]-CA--N-[C] |==|  0.77797
USER: genes 7 Torsion [N]-C--CA-[N] |==|  0.56207
USER: genes 8 Torsion [N]-CA--C-[N] |==|  0.15381
USER: genes 9 Torsion [C]-N--CA-[CB] |==|  0.14332
USER: genes 10 Torsion [N]-CA--C-[N] |==|  0.09063
USER: genes 11 Torsion [C]-N--CA-[CB] |==|  0.51111
USER: genes 12 Torsion [N]-CA--C-[N] |==|  0.42276
USER: genes 13 Torsion [C]-N--CA-[C] |==|  0.77189
USER: genes 14 Torsion [N]-CA--C-[O] |==|  0.97767
ROOT
ATOM      1  CA  ALA E  11       0.431  19.597   2.337  1.00 85.35 LIG 0.17  C 
ATOM      2  CB  ALA E  11       0.619  18.477   3.363  1.00 80.46 LIG 0.04  C 
ENDROOT
BRANCH 1 3
ATOM      3  N   ALA E  11       1.022  20.835   2.833  1.00 87.15 LIG-0.35  N 
ATOM      4  C   ALA E  10       2.216  20.822   3.431  1.00 62.15 LIG 0.24  C 
ATOM      5 O    ALA E  10       2.951  19.834   3.413  1.00 65.72 LIG-0.27  OA
ATOM      6 H    ALA E  11       0.547  21.541   2.706  1.00 87.15 LIG 0.16  HD
BRANCH 4 7
ATOM      7  CA  ALA E  10       2.657  22.092   4.151  1.00 66.45 LIG 0.17  C 
ATOM      8  CB  ALA E  10       2.340  23.321   3.300  1.00 58.63 LIG 0.04  C 
BRANCH 7 9
ATOM      9  N   ALA E  10       4.075  22.069   4.475  1.00 75.43 LIG-0.35  N 
ATOM     10  C   ALA E   9       4.541  22.259   5.708  1.00 82.21 LIG 0.24  C 
ATOM     11 O    ALA E   9       3.816  22.504   6.679  1.00 73.75 LIG-0.27  OA
ATOM     12 H    ALA E  10       4.584  21.923   3.797  1.00 75.43 LIG 0.16  HD
BRANCH 10 13
ATOM     13  CA  ALA E   9       6.053  22.189   5.870  1.00 87.65 LIG 0.17  C 
ATOM     14  CB  ALA E   9       6.464  22.490   7.310  1.00 72.21 LIG 0.04  C 
BRANCH 13 15
ATOM     15  N   ALA E   9       6.649  23.135   4.936  1.00 84.24 LIG-0.35  N 
ATOM     16 H    ALA E   9       6.885  23.881   5.294  1.00 84.24 LIG 0.16  HD
ATOM     17  C   ALA E   8       6.806  22.858   3.649  1.00 61.40 LIG 0.26  C 
ATOM     18 O    ALA E   8       6.550  21.754   3.172  1.00 66.21 LIG-0.27  OA
BRANCH 17 19
ATOM     19  CA  ALA E   8       7.360  23.981   2.778  1.00 67.03 LIG 0.40  C 
ATOM     20  N   ALA E   8       6.995  23.764   1.346  1.00 60.26 LIG 0.61  N 
ATOM     21  CB  ALA E   8       6.849  25.335   3.257  1.00 64.64 LIG 0.06  C 
ENDBRANCH 17 19
ENDBRANCH 13 15
ENDBRANCH 10 13
ENDBRANCH 7 9
ENDBRANCH 4 7
ENDBRANCH 1 3
BRANCH 1 22
ATOM     22  C   ALA E  11      -1.047  19.773   2.014  1.00 81.78 LIG 0.24  C 
ATOM     23  N   ALA E  12      -1.379  20.742   1.163  1.00 82.91 LIG-0.35  N 
ATOM     24 H    ALA E  12      -0.817  21.201   0.700  1.00 82.91 LIG 0.16  HD
ATOM     25 O    ALA E  11      -1.898  19.045   2.540  1.00 89.30 LIG-0.27  OA
BRANCH 23 26
ATOM     26  CA  ALA E  12      -2.778  21.093   0.960  1.00 61.10 LIG 0.17  C 
ATOM     27  CB  ALA E  12      -3.474  21.353   2.305  1.00 65.27 LIG 0.04  C 
BRANCH 26 28
ATOM     28  C   ALA E  12      -2.897  22.309   0.056  1.00 54.59 LIG 0.24  C 
ATOM     29  N   ALA E  13      -1.948  22.409  -0.874  1.00 64.78 LIG-0.35  N 
ATOM     30 H    ALA E  13      -1.346  21.809  -1.009  1.00 64.78 LIG 0.16  HD
ATOM     31 O    ALA E  12      -3.832  23.107   0.170  1.00 69.11 LIG-0.27  OA
BRANCH 29 32
ATOM     32  CA  ALA E  13      -1.849  23.561  -1.755  1.00 54.23 LIG 0.17  C 
ATOM     33  CB  ALA E  13      -0.730  23.345  -2.775  1.00 56.27 LIG 0.04  C 
BRANCH 32 34
ATOM     34  C   ALA E  13      -3.139  23.825  -2.511  1.00 65.29 LIG 0.24  C 
ATOM     35  N   ALA E  14      -3.345  25.091  -2.856  1.00 85.74 LIG-0.35  N 
ATOM     36 H    ALA E  14      -2.816  25.733  -2.642  1.00 85.74 LIG 0.16  HD
ATOM     37 O    ALA E  13      -3.897  22.904  -2.827  1.00 75.52 LIG-0.27  OA
BRANCH 35 38
ATOM     38  CA  ALA E  14      -4.497  25.511  -3.634  1.00 94.46 LIG 0.16  C 
ATOM     39  CB  ALA E  14      -4.797  26.969  -3.374  1.00106.12 LIG 0.04  C 
BRANCH 38 40
ATOM     40  C   ALA E  14      -4.248  25.273  -5.119  1.00 99.07 LIG 0.22  C 
ATOM     41 O    ALA E  14      -3.138  24.926  -5.525  1.00120.33 LIG-0.29  OA
ENDBRANCH 38 40
ENDBRANCH 35 38
ENDBRANCH 32 34
ENDBRANCH 29 32
ENDBRANCH 26 28
ENDBRANCH 23 26
ENDBRANCH 1 22
TORSDOF 13
ENDMDL
MODEL 96
USER: ADFR SOLUTION from run 148
USER: SCORE 5.730216 LL:  -2.719 LR:  -3.993 RR:   0.000 FEB:  -0.115
USER: RMSD 5.846664
USER: SEED 147
USER: STATUS searching
USER: GENES 15
USER: genes 0 Translation |==|  0.65613 0.27799 0.57512
USER: genes 1 Rotation |==|  0.67413 0.44300 0.60469 0.95329
USER: genes 2 Torsion [CB]-CA--N-[C] |==|  0.85142
USER: genes 3 Torsion [N]-C--CA-[N] |==|  0.97626
USER: genes 4 Torsion [C]-CA--N-[C] |==|  0.78522
USER: genes 5 Torsion [N]-C--CA-[N] |==|  0.45498
USER: genes 6 Torsion [C]-CA--N-[C] |==|  0.84145
USER: genes 7 Torsion [N]-C--CA-[N] |==|  0.03986
USER: genes 8 Torsion [N]-CA--C-[N] |==|  0.98697
USER: genes 9 Torsion [C]-N--CA-[CB] |==|  0.80046
USER: genes 10 Torsion [N]-CA--C-[N] |==|  0.19151
USER: genes 11 Torsion [C]-N--CA-[CB] |==|  0.84440
USER: genes 12 Torsion [N]-CA--C-[N] |==|  0.37898
USER: genes 13 Torsion [C]-N--CA-[C] |==|  0.17088
USER: genes 14 Torsion [N]-CA--C-[O] |==|  0.04386
ROOT
ATOM      1  CA  ALA E  11       2.293  19.633   2.546  1.00 85.35 LIG 0.17  C 
ATOM      2  CB  ALA E  11       1.211  18.923   3.363  1.00 80.46 LIG 0.04  C 
ENDROOT
BRANCH 1 3
ATOM      3  N   ALA E  11       2.676  20.880   3.198  1.00 87.15 LIG-0.35  N 
ATOM      4  C   ALA E  10       1.749  21.784   3.525  1.00 62.15 LIG 0.24  C 
ATOM      5 O    ALA E  10       0.544  21.535   3.487  1.00 65.72 LIG-0.27  OA
ATOM      6 H    ALA E  11       3.519  20.971   3.343  1.00 87.15 LIG 0.16  HD
BRANCH 4 7
ATOM      7  CA  ALA E  10       2.233  23.163   3.962  1.00 66.45 LIG 0.17  C 
ATOM      8  CB  ALA E  10       1.807  24.221   2.946  1.00 58.63 LIG 0.04  C 
BRANCH 7 9
ATOM      9  N   ALA E  10       3.677  23.202   4.138  1.00 75.43 LIG-0.35  N 
ATOM     10  C   ALA E   9       4.291  22.697   5.205  1.00 82.21 LIG 0.24  C 
ATOM     11 O    ALA E   9       3.692  22.182   6.156  1.00 73.75 LIG-0.27  OA
ATOM     12 H    ALA E  10       4.095  23.582   3.489  1.00 75.43 LIG 0.16  HD
BRANCH 10 13
ATOM     13  CA  ALA E   9       5.810  22.812   5.220  1.00 87.65 LIG 0.17  C 
ATOM     14  CB  ALA E   9       6.444  21.825   4.243  1.00 72.21 LIG 0.04  C 
BRANCH 13 15
ATOM     15  N   ALA E   9       6.263  22.577   6.585  1.00 84.24 LIG-0.35  N 
ATOM     16 H    ALA E   9       6.827  21.932   6.663  1.00 84.24 LIG 0.16  HD
ATOM     17  C   ALA E   8       5.835  23.303   7.609  1.00 61.40 LIG 0.26  C 
ATOM     18 O    ALA E   8       5.103  24.281   7.470  1.00 66.21 LIG-0.27  OA
BRANCH 17 19
ATOM     19  CA  ALA E   8       6.328  22.881   8.990  1.00 67.03 LIG 0.40  C 
ATOM     20  N   ALA E   8       7.476  21.933   8.873  1.00 60.26 LIG 0.61  N 
ATOM     21  CB  ALA E   8       6.728  24.100   9.814  1.00 64.64 LIG 0.06  C 
ENDBRANCH 17 19
ENDBRANCH 13 15
ENDBRANCH 10 13
ENDBRANCH 7 9
ENDBRANCH 4 7
ENDBRANCH 1 3
BRANCH 1 22
ATOM     22  C   ALA E  11       1.807  19.873   1.122  1.00 81.78 LIG 0.24  C 
ATOM     23  N   ALA E  12       1.704  21.136   0.712  1.00 82.91 LIG-0.35  N 
ATOM     24 H    ALA E  12       1.995  21.818   1.149  1.00 82.91 LIG 0.16  HD
ATOM     25 O    ALA E  11       1.509  18.922   0.390  1.00 89.30 LIG-0.27  OA
BRANCH 23 26
ATOM     26  CA  ALA E  12       1.065  21.445  -0.559  1.00 61.10 LIG 0.17  C 
ATOM     27  CB  ALA E  12       1.956  21.016  -1.735  1.00 65.27 LIG 0.04  C 
BRANCH 26 28
ATOM     28  C   ALA E  12      -0.295  20.771  -0.650  1.00 54.59 LIG 0.24  C 
ATOM     29  N   ALA E  13      -1.218  21.263   0.176  1.00 64.78 LIG-0.35  N 
ATOM     30 H    ALA E  13      -1.092  21.949   0.680  1.00 64.78 LIG 0.16  HD
ATOM     31 O    ALA E  12      -0.512  19.866  -1.460  1.00 69.11 LIG-0.27  OA
BRANCH 29 32
ATOM     32  CA  ALA E  13      -2.541  20.671   0.296  1.00 54.23 LIG 0.17  C 
ATOM     33  CB  ALA E  13      -3.214  20.615  -1.075  1.00 56.27 LIG 0.04  C 
BRANCH 32 34
ATOM     34  C   ALA E  13      -2.495  19.263   0.864  1.00 65.29 LIG 0.24  C 
ATOM     35  N   ALA E  14      -3.413  18.994   1.785  1.00 85.74 LIG-0.35  N 
ATOM     36 H    ALA E  14      -3.976  19.574   2.078  1.00 85.74 LIG 0.16  HD
ATOM     37 O    ALA E  13      -1.695  18.426   0.440  1.00 75.52 LIG-0.27  OA
BRANCH 35 38
ATOM     38  CA  ALA E  14      -3.552  17.681   2.389  1.00 94.46 LIG 0.16  C 
ATOM     39  CB  ALA E  14      -3.875  16.652   1.330  1.00106.12 LIG 0.04  C 
BRANCH 38 40
ATOM     40  C   ALA E  14      -2.276  17.302   3.133  1.00 99.07 LIG 0.22  C 
ATOM     41 O    ALA E  14      -1.433  18.154   3.412  1.00120.33 LIG-0.29  OA
ENDBRANCH 38 40
ENDBRANCH 35 38
ENDBRANCH 32 34
ENDBRANCH 29 32
ENDBRANCH 26 28
ENDBRANCH 23 26
ENDBRANCH 1 22
TORSDOF 13
ENDMDL
MODEL 97
USER: ADFR SOLUTION from run 65
USER: SCORE 3.888903 LL:  -2.488 LR:  -3.984 RR:   0.000 FEB:  -0.106
USER: RMSD 4.423430
USER: SEED 64
USER: STATUS no improvement in best in 13 clusters for 5 generations
USER: GENES 15
USER: genes 0 Translation |==|  0.56172 0.25491 0.62034
USER: genes 1 Rotation |==|  0.53018 0.35314 0.58249 0.96980
USER: genes 2 Torsion [CB]-CA--N-[C] |==|  0.45277
USER: genes 3 Torsion [N]-C--CA-[N] |==|  0.45556
USER: genes 4 Torsion [C]-CA--N-[C] |==|  0.67016
USER: genes 5 Torsion [N]-C--CA-[N] |==|  0.16723
USER: genes 6 Torsion [C]-CA--N-[C] |==|  0.78224
USER: genes 7 Torsion [N]-C--CA-[N] |==|  0.37938
USER: genes 8 Torsion [N]-CA--C-[N] |==|  0.70330
USER: genes 9 Torsion [C]-N--CA-[CB] |==|  0.18305
USER: genes 10 Torsion [N]-CA--C-[N] |==|  0.10456
USER: genes 11 Torsion [C]-N--CA-[CB] |==|  0.84443
USER: genes 12 Torsion [N]-CA--C-[N] |==|  0.39999
USER: genes 13 Torsion [C]-N--CA-[C] |==|  0.75900
USER: genes 14 Torsion [N]-CA--C-[O] |==|  0.98732
ROOT
ATOM      1  CA  ALA E  11       0.169  19.217   3.360  1.00 85.35 LIG 0.17  C 
ATOM      2  CB  ALA E  11      -1.296  19.201   3.802  1.00 80.46 LIG 0.04  C 
ENDROOT
BRANCH 1 3
ATOM      3  N   ALA E  11       0.749  20.535   3.594  1.00 87.15 LIG-0.35  N 
ATOM      4  C   ALA E  10       2.074  20.697   3.608  1.00 62.15 LIG 0.24  C 
ATOM      5 O    ALA E  10       2.850  19.818   3.231  1.00 65.72 LIG-0.27  OA
ATOM      6 H    ALA E  11       0.179  21.168   3.716  1.00 87.15 LIG 0.16  HD
BRANCH 4 7
ATOM      7  CA  ALA E  10       2.616  22.031   4.110  1.00 66.45 LIG 0.17  C 
ATOM      8  CB  ALA E  10       2.374  23.127   3.072  1.00 58.63 LIG 0.04  C 
BRANCH 7 9
ATOM      9  N   ALA E  10       4.034  21.958   4.427  1.00 75.43 LIG-0.35  N 
ATOM     10  C   ALA E   9       4.516  22.183   5.648  1.00 82.21 LIG 0.24  C 
ATOM     11 O    ALA E   9       3.811  22.505   6.611  1.00 73.75 LIG-0.27  OA
ATOM     12 H    ALA E  10       4.530  21.758   3.754  1.00 75.43 LIG 0.16  HD
BRANCH 10 13
ATOM     13  CA  ALA E   9       6.025  22.050   5.806  1.00 87.65 LIG 0.17  C 
ATOM     14  CB  ALA E   9       6.445  22.267   7.258  1.00 72.21 LIG 0.04  C 
BRANCH 13 15
ATOM     15  N   ALA E   9       6.655  23.019   4.919  1.00 84.24 LIG-0.35  N 
ATOM     16 H    ALA E   9       6.936  23.729   5.315  1.00 84.24 LIG 0.16  HD
ATOM     17  C   ALA E   8       6.777  22.812   3.615  1.00 61.40 LIG 0.26  C 
ATOM     18 O    ALA E   8       6.455  21.754   3.078  1.00 66.21 LIG-0.27  OA
BRANCH 17 19
ATOM     19  CA  ALA E   8       7.376  23.955   2.801  1.00 67.03 LIG 0.40  C 
ATOM     20  N   ALA E   8       8.369  23.435   1.814  1.00 60.26 LIG 0.61  N 
ATOM     21  CB  ALA E   8       6.279  24.739   2.089  1.00 64.64 LIG 0.06  C 
ENDBRANCH 17 19
ENDBRANCH 13 15
ENDBRANCH 10 13
ENDBRANCH 7 9
ENDBRANCH 4 7
ENDBRANCH 1 3
BRANCH 1 22
ATOM     22  C   ALA E  11       0.283  18.809   1.897  1.00 81.78 LIG 0.24  C 
ATOM     23  N   ALA E  12      -0.830  18.827   1.165  1.00 82.91 LIG-0.35  N 
ATOM     24 H    ALA E  12      -1.581  19.155   1.424  1.00 82.91 LIG 0.16  HD
ATOM     25 O    ALA E  11       1.372  18.463   1.423  1.00 89.30 LIG-0.27  OA
BRANCH 23 26
ATOM     26  CA  ALA E  12      -0.832  18.265  -0.179  1.00 61.10 LIG 0.17  C 
ATOM     27  CB  ALA E  12      -0.608  16.746  -0.135  1.00 65.27 LIG 0.04  C 
BRANCH 26 28
ATOM     28  C   ALA E  12      -2.137  18.589  -0.890  1.00 54.59 LIG 0.24  C 
ATOM     29  N   ALA E  13      -2.625  19.804  -0.636  1.00 64.78 LIG-0.35  N 
ATOM     30 H    ALA E  13      -2.215  20.394  -0.162  1.00 64.78 LIG 0.16  HD
ATOM     31 O    ALA E  12      -2.662  17.788  -1.667  1.00 69.11 LIG-0.27  OA
BRANCH 29 32
ATOM     32  CA  ALA E  13      -3.914  20.240  -1.148  1.00 54.23 LIG 0.17  C 
ATOM     33  CB  ALA E  13      -3.944  20.102  -2.670  1.00 56.27 LIG 0.04  C 
BRANCH 32 34
ATOM     34  C   ALA E  13      -5.067  19.437  -0.573  1.00 65.29 LIG 0.24  C 
ATOM     35  N   ALA E  14      -6.180  20.125  -0.348  1.00 85.74 LIG-0.35  N 
ATOM     36 H    ALA E  14      -6.248  20.972  -0.478  1.00 85.74 LIG 0.16  HD
ATOM     37 O    ALA E  13      -4.975  18.220  -0.393  1.00 75.52 LIG-0.27  OA
BRANCH 35 38
ATOM     38  CA  ALA E  14      -7.398  19.504   0.142  1.00 94.46 LIG 0.16  C 
ATOM     39  CB  ALA E  14      -8.201  20.499   0.948  1.00106.12 LIG 0.04  C 
BRANCH 38 40
ATOM     40  C   ALA E  14      -8.224  18.966  -1.020  1.00 99.07 LIG 0.22  C 
ATOM     41 O    ALA E  14      -7.875  19.161  -2.185  1.00120.33 LIG-0.29  OA
ENDBRANCH 38 40
ENDBRANCH 35 38
ENDBRANCH 32 34
ENDBRANCH 29 32
ENDBRANCH 26 28
ENDBRANCH 23 26
ENDBRANCH 1 22
TORSDOF 13
ENDMDL
MODEL 98
USER: ADFR SOLUTION from run 107
USER: SCORE 3.641971 LL:  -2.350 LR:  -3.980 RR:   0.000 FEB:  -0.102
USER: RMSD 3.805148
USER: SEED 106
USER: STATUS no improvement in best in 67 clusters for 5 generations
USER: GENES 15
USER: genes 0 Translation |==|  0.56604 0.24567 0.59188
USER: genes 1 Rotation |==|  0.61431 0.42875 0.58972 0.97308
USER: genes 2 Torsion [CB]-CA--N-[C] |==|  0.36699
USER: genes 3 Torsion [N]-C--CA-[N] |==|  0.48680
USER: genes 4 Torsion [C]-CA--N-[C] |==|  0.64444
USER: genes 5 Torsion [N]-C--CA-[N] |==|  0.16458
USER: genes 6 Torsion [C]-CA--N-[C] |==|  0.78057
USER: genes 7 Torsion [N]-C--CA-[N] |==|  0.92953
USER: genes 8 Torsion [N]-CA--C-[N] |==|  0.00346
USER: genes 9 Torsion [C]-N--CA-[CB] |==|  0.84936
USER: genes 10 Torsion [N]-CA--C-[N] |==|  0.37309
USER: genes 11 Torsion [C]-N--CA-[CB] |==|  0.17851
USER: genes 12 Torsion [N]-CA--C-[N] |==|  0.08510
USER: genes 13 Torsion [C]-N--CA-[C] |==|  0.79324
USER: genes 14 Torsion [N]-CA--C-[O] |==|  0.97235
ROOT
ATOM      1  CA  ALA E  11       0.266  19.051   2.848  1.00 85.35 LIG 0.17  C 
ATOM      2  CB  ALA E  11      -0.942  18.668   3.706  1.00 80.46 LIG 0.04  C 
ENDROOT
BRANCH 1 3
ATOM      3  N   ALA E  11       0.764  20.365   3.240  1.00 87.15 LIG-0.35  N 
ATOM      4  C   ALA E  10       2.068  20.557   3.453  1.00 62.15 LIG 0.24  C 
ATOM      5 O    ALA E  10       2.917  19.722   3.140  1.00 65.72 LIG-0.27  OA
ATOM      6 H    ALA E  11       0.162  20.975   3.316  1.00 87.15 LIG 0.16  HD
BRANCH 4 7
ATOM      7  CA  ALA E  10       2.489  21.870   4.105  1.00 66.45 LIG 0.17  C 
ATOM      8  CB  ALA E  10       2.104  23.051   3.217  1.00 58.63 LIG 0.04  C 
BRANCH 7 9
ATOM      9  N   ALA E  10       3.917  21.906   4.382  1.00 75.43 LIG-0.35  N 
ATOM     10  C   ALA E   9       4.417  22.207   5.578  1.00 82.21 LIG 0.24  C 
ATOM     11 O    ALA E   9       3.718  22.514   6.551  1.00 73.75 LIG-0.27  OA
ATOM     12 H    ALA E  10       4.408  21.716   3.701  1.00 75.43 LIG 0.16  HD
BRANCH 10 13
ATOM     13  CA  ALA E   9       5.935  22.185   5.695  1.00 87.65 LIG 0.17  C 
ATOM     14  CB  ALA E   9       6.380  22.506   7.120  1.00 72.21 LIG 0.04  C 
BRANCH 13 15
ATOM     15  N   ALA E   9       6.471  23.147   4.739  1.00 84.24 LIG-0.35  N 
ATOM     16 H    ALA E   9       6.707  23.897   5.090  1.00 84.24 LIG 0.16  HD
ATOM     17  C   ALA E   8       6.581  22.875   3.446  1.00 61.40 LIG 0.26  C 
ATOM     18 O    ALA E   8       6.328  21.768   2.977  1.00 66.21 LIG-0.27  OA
BRANCH 17 19
ATOM     19  CA  ALA E   8       7.074  24.012   2.556  1.00 67.03 LIG 0.40  C 
ATOM     20  N   ALA E   8       6.765  25.336   3.173  1.00 60.26 LIG 0.61  N 
ATOM     21  CB  ALA E   8       8.571  23.882   2.299  1.00 64.64 LIG 0.06  C 
ENDBRANCH 17 19
ENDBRANCH 13 15
ENDBRANCH 10 13
ENDBRANCH 7 9
ENDBRANCH 4 7
ENDBRANCH 1 3
BRANCH 1 22
ATOM     22  C   ALA E  11      -0.103  19.012   1.370  1.00 81.78 LIG 0.24  C 
ATOM     23  N   ALA E  12       0.092  20.120   0.658  1.00 82.91 LIG-0.35  N 
ATOM     24 H    ALA E  12       0.511  20.816   0.940  1.00 82.91 LIG 0.16  HD
ATOM     25 O    ALA E  11      -0.578  17.986   0.867  1.00 89.30 LIG-0.27  OA
BRANCH 23 26
ATOM     26  CA  ALA E  12      -0.417  20.216  -0.704  1.00 61.10 LIG 0.17  C 
ATOM     27  CB  ALA E  12       0.081  19.038  -1.555  1.00 65.27 LIG 0.04  C 
BRANCH 26 28
ATOM     28  C   ALA E  12      -1.936  20.266  -0.703  1.00 54.59 LIG 0.24  C 
ATOM     29  N   ALA E  13      -2.465  21.197  -1.496  1.00 64.78 LIG-0.35  N 
ATOM     30 H    ALA E  13      -2.002  21.695  -2.023  1.00 64.78 LIG 0.16  HD
ATOM     31 O    ALA E  12      -2.606  19.469  -0.040  1.00 69.11 LIG-0.27  OA
BRANCH 29 32
ATOM     32  CA  ALA E  13      -3.896  21.454  -1.538  1.00 54.23 LIG 0.17  C 
ATOM     33  CB  ALA E  13      -4.372  21.977  -0.183  1.00 56.27 LIG 0.04  C 
BRANCH 32 34
ATOM     34  C   ALA E  13      -4.271  22.470  -2.602  1.00 65.29 LIG 0.24  C 
ATOM     35  N   ALA E  14      -3.485  22.486  -3.673  1.00 85.74 LIG-0.35  N 
ATOM     36 H    ALA E  14      -2.788  21.990  -3.757  1.00 85.74 LIG 0.16  HD
ATOM     37 O    ALA E  13      -5.275  23.177  -2.487  1.00 75.52 LIG-0.27  OA
BRANCH 35 38
ATOM     38  CA  ALA E  14      -3.734  23.352  -4.811  1.00 94.46 LIG 0.16  C 
ATOM     39  CB  ALA E  14      -2.492  23.456  -5.666  1.00106.12 LIG 0.04  C 
BRANCH 38 40
ATOM     40  C   ALA E  14      -4.906  22.826  -5.632  1.00 99.07 LIG 0.22  C 
ATOM     41 O    ALA E  14      -5.382  21.712  -5.409  1.00120.33 LIG-0.29  OA
ENDBRANCH 38 40
ENDBRANCH 35 38
ENDBRANCH 32 34
ENDBRANCH 29 32
ENDBRANCH 26 28
ENDBRANCH 23 26
ENDBRANCH 1 22
TORSDOF 13
ENDMDL
MODEL 99
USER: ADFR SOLUTION from run 163
USER: SCORE 3.870189 LL:  -2.403 LR:  -3.980 RR:   0.000 FEB:  -0.102
USER: RMSD 4.882927
USER: SEED 162
USER: STATUS no improvement in best in 92 clusters for 5 generations
USER: GENES 15
USER: genes 0 Translation |==|  0.61626 0.34679 0.62490
USER: genes 1 Rotation |==|  0.42948 0.36758 0.49214 0.97690
USER: genes 2 Torsion [CB]-CA--N-[C] |==|  0.40403
USER: genes 3 Torsion [N]-C--CA-[N] |==|  0.20605
USER: genes 4 Torsion [C]-CA--N-[C] |==|  0.81111
USER: genes 5 Torsion [N]-C--CA-[N] |==|  0.98412
USER: genes 6 Torsion [C]-CA--N-[C] |==|  0.82167
USER: genes 7 Torsion [N]-C--CA-[N] |==|  0.77130
USER: genes 8 Torsion [N]-CA--C-[N] |==|  0.88959
USER: genes 9 Torsion [C]-N--CA-[CB] |==|  0.13913
USER: genes 10 Torsion [N]-CA--C-[N] |==|  0.06773
USER: genes 11 Torsion [C]-N--CA-[CB] |==|  0.83583
USER: genes 12 Torsion [N]-CA--C-[N] |==|  0.38827
USER: genes 13 Torsion [C]-N--CA-[C] |==|  0.75517
USER: genes 14 Torsion [N]-CA--C-[O] |==|  0.04238
ROOT
ATOM      1  CA  ALA E  11       1.396  20.871   3.442  1.00 85.35 LIG 0.17  C 
ATOM      2  CB  ALA E  11       0.115  21.627   3.801  1.00 80.46 LIG 0.04  C 
ENDROOT
BRANCH 1 3
ATOM      3  N   ALA E  11       2.513  21.802   3.329  1.00 87.15 LIG-0.35  N 
ATOM      4  C   ALA E  10       3.741  21.433   3.702  1.00 62.15 LIG 0.24  C 
ATOM      5 O    ALA E  10       4.028  20.262   3.956  1.00 65.72 LIG-0.27  OA
ATOM      6 H    ALA E  11       2.311  22.576   3.013  1.00 87.15 LIG 0.16  HD
BRANCH 4 7
ATOM      7  CA  ALA E  10       4.804  22.521   3.803  1.00 66.45 LIG 0.17  C 
ATOM      8  CB  ALA E  10       6.200  21.900   3.827  1.00 58.63 LIG 0.04  C 
BRANCH 7 9
ATOM      9  N   ALA E  10       4.617  23.357   4.979  1.00 75.43 LIG-0.35  N 
ATOM     10  C   ALA E   9       3.586  24.187   5.123  1.00 82.21 LIG 0.24  C 
ATOM     11 O    ALA E   9       2.716  24.348   4.260  1.00 73.75 LIG-0.27  OA
ATOM     12 H    ALA E  10       5.234  23.265   5.572  1.00 75.43 LIG 0.16  HD
BRANCH 10 13
ATOM     13  CA  ALA E   9       3.539  24.977   6.424  1.00 87.65 LIG 0.17  C 
ATOM     14  CB  ALA E   9       3.655  26.476   6.159  1.00 72.21 LIG 0.04  C 
BRANCH 13 15
ATOM     15  N   ALA E   9       4.620  24.500   7.277  1.00 84.24 LIG-0.35  N 
ATOM     16 H    ALA E   9       5.221  25.092   7.446  1.00 84.24 LIG 0.16  HD
ATOM     17  C   ALA E   8       4.661  23.260   7.743  1.00 61.40 LIG 0.26  C 
ATOM     18 O    ALA E   8       3.748  22.455   7.569  1.00 66.21 LIG-0.27  OA
BRANCH 17 19
ATOM     19  CA  ALA E   8       5.900  22.880   8.547  1.00 67.03 LIG 0.40  C 
ATOM     20  N   ALA E   8       7.024  22.504   7.637  1.00 60.26 LIG 0.61  N 
ATOM     21  CB  ALA E   8       6.319  24.025   9.463  1.00 64.64 LIG 0.06  C 
ENDBRANCH 17 19
ENDBRANCH 13 15
ENDBRANCH 10 13
ENDBRANCH 7 9
ENDBRANCH 4 7
ENDBRANCH 1 3
BRANCH 1 22
ATOM     22  C   ALA E  11       1.198  20.078   2.157  1.00 81.78 LIG 0.24  C 
ATOM     23  N   ALA E  12       1.349  20.727   1.004  1.00 82.91 LIG-0.35  N 
ATOM     24 H    ALA E  12       1.656  21.528   0.929  1.00 82.91 LIG 0.16  HD
ATOM     25 O    ALA E  11       0.896  18.879   2.197  1.00 89.30 LIG-0.27  OA
BRANCH 23 26
ATOM     26  CA  ALA E  12       0.985  20.086  -0.252  1.00 61.10 LIG 0.17  C 
ATOM     27  CB  ALA E  12      -0.428  19.490  -0.171  1.00 65.27 LIG 0.04  C 
BRANCH 26 28
ATOM     28  C   ALA E  12       1.079  21.075  -1.403  1.00 54.59 LIG 0.24  C 
ATOM     29  N   ALA E  13       1.910  22.096  -1.195  1.00 64.78 LIG-0.35  N 
ATOM     30 H    ALA E  13       2.410  22.172  -0.500  1.00 64.78 LIG 0.16  HD
ATOM     31 O    ALA E  12       0.454  20.902  -2.453  1.00 69.11 LIG-0.27  OA
BRANCH 29 32
ATOM     32  CA  ALA E  13       2.042  23.189  -2.146  1.00 54.23 LIG 0.17  C 
ATOM     33  CB  ALA E  13       2.488  22.648  -3.504  1.00 56.27 LIG 0.04  C 
BRANCH 32 34
ATOM     34  C   ALA E  13       0.743  23.950  -2.338  1.00 65.29 LIG 0.24  C 
ATOM     35  N   ALA E  14       0.867  25.269  -2.432  1.00 85.74 LIG-0.35  N 
ATOM     36 H    ALA E  14       1.617  25.681  -2.355  1.00 85.74 LIG 0.16  HD
ATOM     37 O    ALA E  13      -0.334  23.361  -2.458  1.00 75.52 LIG-0.27  OA
BRANCH 35 38
ATOM     38  CA  ALA E  14      -0.265  26.145  -2.678  1.00 94.46 LIG 0.16  C 
ATOM     39  CB  ALA E  14      -0.032  27.490  -2.029  1.00106.12 LIG 0.04  C 
BRANCH 38 40
ATOM     40  C   ALA E  14      -0.494  26.307  -4.177  1.00 99.07 LIG 0.22  C 
ATOM     41 O    ALA E  14       0.032  25.538  -4.981  1.00120.33 LIG-0.29  OA
ENDBRANCH 38 40
ENDBRANCH 35 38
ENDBRANCH 32 34
ENDBRANCH 29 32
ENDBRANCH 26 28
ENDBRANCH 23 26
ENDBRANCH 1 22
TORSDOF 13
ENDMDL
MODEL 100
USER: ADFR SOLUTION from run 19
USER: SCORE 4.695214 LL:  -2.423 LR:  -3.968 RR:   0.000 FEB:  -0.090
USER: RMSD 4.704116
USER: SEED 18
USER: STATUS no improvement in best in 53 clusters for 5 generations
USER: GENES 15
USER: genes 0 Translation |==|  0.58214 0.24766 0.59564
USER: genes 1 Rotation |==|  0.75899 0.72268 0.58819 0.85435
USER: genes 2 Torsion [CB]-CA--N-[C] |==|  0.18228
USER: genes 3 Torsion [N]-C--CA-[N] |==|  0.43726
USER: genes 4 Torsion [C]-CA--N-[C] |==|  0.64497
USER: genes 5 Torsion [N]-C--CA-[N] |==|  0.15726
USER: genes 6 Torsion [C]-CA--N-[C] |==|  0.74959
USER: genes 7 Torsion [N]-C--CA-[N] |==|  0.51183
USER: genes 8 Torsion [N]-CA--C-[N] |==|  0.59173
USER: genes 9 Torsion [C]-N--CA-[CB] |==|  0.50811
USER: genes 10 Torsion [N]-CA--C-[N] |==|  0.43690
USER: genes 11 Torsion [C]-N--CA-[CB] |==|  0.84781
USER: genes 12 Torsion [N]-CA--C-[N] |==|  0.39428
USER: genes 13 Torsion [C]-N--CA-[C] |==|  0.16746
USER: genes 14 Torsion [N]-CA--C-[O] |==|  0.12402
ROOT
ATOM      1  CA  ALA E  11       0.628  19.087   2.916  1.00 85.35 LIG 0.17  C 
ATOM      2  CB  ALA E  11       1.187  17.997   3.832  1.00 80.46 LIG 0.04  C 
ENDROOT
BRANCH 1 3
ATOM      3  N   ALA E  11       1.038  20.403   3.393  1.00 87.15 LIG-0.35  N 
ATOM      4  C   ALA E  10       2.326  20.754   3.382  1.00 62.15 LIG 0.24  C 
ATOM      5 O    ALA E  10       3.185  20.093   2.797  1.00 65.72 LIG-0.27  OA
ATOM      6 H    ALA E  11       0.397  20.906   3.668  1.00 87.15 LIG 0.16  HD
BRANCH 4 7
ATOM      7  CA  ALA E  10       2.715  22.027   4.126  1.00 66.45 LIG 0.17  C 
ATOM      8  CB  ALA E  10       2.398  23.257   3.277  1.00 58.63 LIG 0.04  C 
BRANCH 7 9
ATOM      9  N   ALA E  10       4.123  22.033   4.496  1.00 75.43 LIG-0.35  N 
ATOM     10  C   ALA E   9       4.546  22.263   5.737  1.00 82.21 LIG 0.24  C 
ATOM     11 O    ALA E   9       3.788  22.525   6.677  1.00 73.75 LIG-0.27  OA
ATOM     12 H    ALA E  10       4.655  21.874   3.839  1.00 75.43 LIG 0.16  HD
BRANCH 10 13
ATOM     13  CA  ALA E   9       6.053  22.218   5.949  1.00 87.65 LIG 0.17  C 
ATOM     14  CB  ALA E   9       6.412  22.521   7.402  1.00 72.21 LIG 0.04  C 
BRANCH 13 15
ATOM     15  N   ALA E   9       6.663  23.179   5.038  1.00 84.24 LIG-0.35  N 
ATOM     16 H    ALA E   9       6.747  23.970   5.367  1.00 84.24 LIG 0.16  HD
ATOM     17  C   ALA E   8       7.048  22.849   3.814  1.00 61.40 LIG 0.26  C 
ATOM     18 O    ALA E   8       7.007  21.695   3.393  1.00 66.21 LIG-0.27  OA
BRANCH 17 19
ATOM     19  CA  ALA E   8       7.585  23.982   2.945  1.00 67.03 LIG 0.40  C 
ATOM     20  N   ALA E   8       7.884  23.493   1.566  1.00 60.26 LIG 0.61  N 
ATOM     21  CB  ALA E   8       6.592  25.138   2.895  1.00 64.64 LIG 0.06  C 
ENDBRANCH 17 19
ENDBRANCH 13 15
ENDBRANCH 10 13
ENDBRANCH 7 9
ENDBRANCH 4 7
ENDBRANCH 1 3
BRANCH 1 22
ATOM     22  C   ALA E  11      -0.889  18.973   2.825  1.00 81.78 LIG 0.24  C 
ATOM     23  N   ALA E  12      -1.432  17.782   3.070  1.00 82.91 LIG-0.35  N 
ATOM     24 H    ALA E  12      -1.004  17.103   3.382  1.00 82.91 LIG 0.16  HD
ATOM     25 O    ALA E  11      -1.577  19.955   2.522  1.00 89.30 LIG-0.27  OA
BRANCH 23 26
ATOM     26  CA  ALA E  12      -2.847  17.554   2.812  1.00 61.10 LIG 0.17  C 
ATOM     27  CB  ALA E  12      -3.257  16.136   3.238  1.00 65.27 LIG 0.04  C 
BRANCH 26 28
ATOM     28  C   ALA E  12      -3.694  18.591   3.533  1.00 54.59 LIG 0.24  C 
ATOM     29  N   ALA E  13      -4.907  18.780   3.014  1.00 64.78 LIG-0.35  N 
ATOM     30 H    ALA E  13      -5.227  18.315   2.365  1.00 64.78 LIG 0.16  HD
ATOM     31 O    ALA E  12      -3.281  19.171   4.541  1.00 69.11 LIG-0.27  OA
BRANCH 29 32
ATOM     32  CA  ALA E  13      -5.808  19.806   3.513  1.00 54.23 LIG 0.17  C 
ATOM     33  CB  ALA E  13      -6.011  19.635   5.019  1.00 56.27 LIG 0.04  C 
BRANCH 32 34
ATOM     34  C   ALA E  13      -5.287  21.209   3.257  1.00 65.29 LIG 0.24  C 
ATOM     35  N   ALA E  14      -6.210  22.105   2.926  1.00 85.74 LIG-0.35  N 
ATOM     36 H    ALA E  14      -7.041  21.913   2.822  1.00 85.74 LIG 0.16  HD
ATOM     37 O    ALA E  13      -4.096  21.489   3.413  1.00 75.52 LIG-0.27  OA
BRANCH 35 38
ATOM     38  CA  ALA E  14      -5.896  23.505   2.705  1.00 94.46 LIG 0.16  C 
ATOM     39  CB  ALA E  14      -5.348  24.121   3.973  1.00106.12 LIG 0.04  C 
BRANCH 38 40
ATOM     40  C   ALA E  14      -4.895  23.651   1.564  1.00 99.07 LIG 0.22  C 
ATOM     41 O    ALA E  14      -5.033  23.013   0.520  1.00120.33 LIG-0.29  OA
ENDBRANCH 38 40
ENDBRANCH 35 38
ENDBRANCH 32 34
ENDBRANCH 29 32
ENDBRANCH 26 28
ENDBRANCH 23 26
ENDBRANCH 1 22
TORSDOF 13
ENDMDL
MODEL 101
USER: ADFR SOLUTION from run 43
USER: SCORE 3.945274 LL:  -2.446 LR:  -3.965 RR:   0.000 FEB:  -0.088
USER: RMSD 3.972791
USER: SEED 42
USER: STATUS no improvement in best in 39 clusters for 5 generations
USER: GENES 15
USER: genes 0 Translation |==|  0.62709 0.37540 0.63641
USER: genes 1 Rotation |==|  0.55183 0.32522 0.48720 0.96540
USER: genes 2 Torsion [CB]-CA--N-[C] |==|  0.41586
USER: genes 3 Torsion [N]-C--CA-[N] |==|  0.07412
USER: genes 4 Torsion [C]-CA--N-[C] |==|  0.65017
USER: genes 5 Torsion [N]-C--CA-[N] |==|  0.50110
USER: genes 6 Torsion [C]-CA--N-[C] |==|  0.55510
USER: genes 7 Torsion [N]-C--CA-[N] |==|  0.44950
USER: genes 8 Torsion [N]-CA--C-[N] |==|  0.90331
USER: genes 9 Torsion [C]-N--CA-[CB] |==|  0.84444
USER: genes 10 Torsion [N]-CA--C-[N] |==|  0.40093
USER: genes 11 Torsion [C]-N--CA-[CB] |==|  0.84363
USER: genes 12 Torsion [N]-CA--C-[N] |==|  0.39333
USER: genes 13 Torsion [C]-N--CA-[C] |==|  0.78442
USER: genes 14 Torsion [N]-CA--C-[O] |==|  0.95876
ROOT
ATOM      1  CA  ALA E  11       1.640  21.386   3.649  1.00 85.35 LIG 0.17  C 
ATOM      2  CB  ALA E  11       0.209  21.778   4.024  1.00 80.46 LIG 0.04  C 
ENDROOT
BRANCH 1 3
ATOM      3  N   ALA E  11       2.584  22.358   4.189  1.00 87.15 LIG-0.35  N 
ATOM      4  C   ALA E  10       3.819  21.981   4.532  1.00 62.15 LIG 0.24  C 
ATOM      5 O    ALA E  10       4.280  20.880   4.230  1.00 65.72 LIG-0.27  OA
ATOM      6 H    ALA E  11       2.281  23.160   4.260  1.00 87.15 LIG 0.16  HD
BRANCH 4 7
ATOM      7  CA  ALA E  10       4.663  22.975   5.323  1.00 66.45 LIG 0.17  C 
ATOM      8  CB  ALA E  10       5.627  22.233   6.249  1.00 58.63 LIG 0.04  C 
BRANCH 7 9
ATOM      9  N   ALA E  10       3.842  23.891   6.099  1.00 75.43 LIG-0.35  N 
ATOM     10  C   ALA E   9       3.952  25.215   6.013  1.00 82.21 LIG 0.24  C 
ATOM     11 O    ALA E   9       4.782  25.784   5.295  1.00 73.75 LIG-0.27  OA
ATOM     12 H    ALA E  10       3.279  23.498   6.618  1.00 75.43 LIG 0.16  HD
BRANCH 10 13
ATOM     13  CA  ALA E   9       3.003  26.024   6.887  1.00 87.65 LIG 0.17  C 
ATOM     14  CB  ALA E   9       1.548  25.671   6.588  1.00 72.21 LIG 0.04  C 
BRANCH 13 15
ATOM     15  N   ALA E   9       3.269  27.437   6.647  1.00 84.24 LIG-0.35  N 
ATOM     16 H    ALA E   9       3.680  27.597   5.909  1.00 84.24 LIG 0.16  HD
ATOM     17  C   ALA E   8       2.903  28.382   7.502  1.00 61.40 LIG 0.26  C 
ATOM     18 O    ALA E   8       2.234  28.146   8.506  1.00 66.21 LIG-0.27  OA
BRANCH 17 19
ATOM     19  CA  ALA E   8       3.330  29.806   7.160  1.00 67.03 LIG 0.40  C 
ATOM     20  N   ALA E   8       2.515  30.798   7.923  1.00 60.26 LIG 0.61  N 
ATOM     21  CB  ALA E   8       4.814  30.006   7.448  1.00 64.64 LIG 0.06  C 
ENDBRANCH 17 19
ENDBRANCH 13 15
ENDBRANCH 10 13
ENDBRANCH 7 9
ENDBRANCH 4 7
ENDBRANCH 1 3
BRANCH 1 22
ATOM     22  C   ALA E  11       1.772  21.258   2.137  1.00 81.78 LIG 0.24  C 
ATOM     23  N   ALA E  12       2.077  22.359   1.451  1.00 82.91 LIG-0.35  N 
ATOM     24 H    ALA E  12       2.312  23.107   1.805  1.00 82.91 LIG 0.16  HD
ATOM     25 O    ALA E  11       1.588  20.170   1.578  1.00 89.30 LIG-0.27  OA
BRANCH 23 26
ATOM     26  CA  ALA E  12       2.027  22.353  -0.004  1.00 61.10 LIG 0.17  C 
ATOM     27  CB  ALA E  12       2.921  21.241  -0.576  1.00 65.27 LIG 0.04  C 
BRANCH 26 28
ATOM     28  C   ALA E  12       0.596  22.186  -0.488  1.00 54.59 LIG 0.24  C 
ATOM     29  N   ALA E  13       0.299  22.862  -1.598  1.00 64.78 LIG-0.35  N 
ATOM     30 H    ALA E  13       0.875  23.309  -2.054  1.00 64.78 LIG 0.16  HD
ATOM     31 O    ALA E  12      -0.199  21.445   0.097  1.00 69.11 LIG-0.27  OA
BRANCH 29 32
ATOM     32  CA  ALA E  13      -1.049  22.899  -2.141  1.00 54.23 LIG 0.17  C 
ATOM     33  CB  ALA E  13      -1.550  21.476  -2.394  1.00 56.27 LIG 0.04  C 
BRANCH 32 34
ATOM     34  C   ALA E  13      -2.029  23.591  -1.211  1.00 65.29 LIG 0.24  C 
ATOM     35  N   ALA E  14      -2.939  24.352  -1.811  1.00 85.74 LIG-0.35  N 
ATOM     36 H    ALA E  14      -2.962  24.483  -2.660  1.00 85.74 LIG 0.16  HD
ATOM     37 O    ALA E  13      -2.004  23.398   0.007  1.00 75.52 LIG-0.27  OA
BRANCH 35 38
ATOM     38  CA  ALA E  14      -3.988  25.038  -1.079  1.00 94.46 LIG 0.16  C 
ATOM     39  CB  ALA E  14      -4.544  26.173  -1.909  1.00106.12 LIG 0.04  C 
BRANCH 38 40
ATOM     40  C   ALA E  14      -5.095  24.061  -0.699  1.00 99.07 LIG 0.22  C 
ATOM     41 O    ALA E  14      -5.167  22.952  -1.230  1.00120.33 LIG-0.29  OA
ENDBRANCH 38 40
ENDBRANCH 35 38
ENDBRANCH 32 34
ENDBRANCH 29 32
ENDBRANCH 26 28
ENDBRANCH 23 26
ENDBRANCH 1 22
TORSDOF 13
ENDMDL
MODEL 102
USER: ADFR SOLUTION from run 180
USER: SCORE 4.777522 LL:  -2.371 LR:  -3.973 RR:   0.000 FEB:  -0.095
USER: RMSD 4.618335
USER: SEED 179
USER: STATUS no improvement in best in 86 clusters for 5 generations
USER: GENES 15
USER: genes 0 Translation |==|  0.69052 0.36607 0.58224
USER: genes 1 Rotation |==|  0.72428 0.43793 0.56693 0.93745
USER: genes 2 Torsion [CB]-CA--N-[C] |==|  0.23262
USER: genes 3 Torsion [N]-C--CA-[N] |==|  0.07439
USER: genes 4 Torsion [C]-CA--N-[C] |==|  0.65076
USER: genes 5 Torsion [N]-C--CA-[N] |==|  0.41652
USER: genes 6 Torsion [C]-CA--N-[C] |==|  0.63683
USER: genes 7 Torsion [N]-C--CA-[N] |==|  0.37151
USER: genes 8 Torsion [N]-CA--C-[N] |==|  0.92692
USER: genes 9 Torsion [C]-N--CA-[CB] |==|  0.84444
USER: genes 10 Torsion [N]-CA--C-[N] |==|  0.37837
USER: genes 11 Torsion [C]-N--CA-[CB] |==|  0.84291
USER: genes 12 Torsion [N]-CA--C-[N] |==|  0.37318
USER: genes 13 Torsion [C]-N--CA-[C] |==|  0.60699
USER: genes 14 Torsion [N]-CA--C-[O] |==|  0.95384
ROOT
ATOM      1  CA  ALA E  11       3.067  21.218   2.674  1.00 85.35 LIG 0.17  C 
ATOM      2  CB  ALA E  11       1.958  20.453   3.399  1.00 80.46 LIG 0.04  C 
ENDROOT
BRANCH 1 3
ATOM      3  N   ALA E  11       3.626  22.241   3.551  1.00 87.15 LIG-0.35  N 
ATOM      4  C   ALA E  10       4.579  21.927   4.433  1.00 62.15 LIG 0.24  C 
ATOM      5 O    ALA E  10       5.164  20.843   4.414  1.00 65.72 LIG-0.27  OA
ATOM      6 H    ALA E  11       3.298  23.029   3.448  1.00 87.15 LIG 0.16  HD
BRANCH 4 7
ATOM      7  CA  ALA E  10       4.934  22.970   5.487  1.00 66.45 LIG 0.17  C 
ATOM      8  CB  ALA E  10       5.393  22.288   6.775  1.00 58.63 LIG 0.04  C 
BRANCH 7 9
ATOM      9  N   ALA E  10       3.817  23.858   5.772  1.00 75.43 LIG-0.35  N 
ATOM     10  C   ALA E   9       3.908  25.184   5.696  1.00 82.21 LIG 0.24  C 
ATOM     11 O    ALA E   9       4.953  25.781   5.411  1.00 73.75 LIG-0.27  OA
ATOM     12 H    ALA E  10       3.095  23.448   5.993  1.00 75.43 LIG 0.16  HD
BRANCH 10 13
ATOM     13  CA  ALA E   9       2.637  25.961   6.013  1.00 87.65 LIG 0.17  C 
ATOM     14  CB  ALA E   9       1.776  26.138   4.765  1.00 72.21 LIG 0.04  C 
BRANCH 13 15
ATOM     15  N   ALA E   9       3.028  27.247   6.577  1.00 84.24 LIG-0.35  N 
ATOM     16 H    ALA E   9       3.624  27.665   6.120  1.00 84.24 LIG 0.16  HD
ATOM     17  C   ALA E   8       2.501  27.718   7.699  1.00 61.40 LIG 0.26  C 
ATOM     18 O    ALA E   8       1.583  27.153   8.290  1.00 66.21 LIG-0.27  OA
BRANCH 17 19
ATOM     19  CA  ALA E   8       3.074  29.034   8.215  1.00 67.03 LIG 0.40  C 
ATOM     20  N   ALA E   8       1.977  29.969   8.607  1.00 60.26 LIG 0.61  N 
ATOM     21  CB  ALA E   8       4.010  28.788   9.394  1.00 64.64 LIG 0.06  C 
ENDBRANCH 17 19
ENDBRANCH 13 15
ENDBRANCH 10 13
ENDBRANCH 7 9
ENDBRANCH 4 7
ENDBRANCH 1 3
BRANCH 1 22
ATOM     22  C   ALA E  11       2.532  21.823   1.382  1.00 81.78 LIG 0.24  C 
ATOM     23  N   ALA E  12       2.137  23.094   1.415  1.00 82.91 LIG-0.35  N 
ATOM     24 H    ALA E  12       2.264  23.629   2.077  1.00 82.91 LIG 0.16  HD
ATOM     25 O    ALA E  11       2.460  21.143   0.351  1.00 89.30 LIG-0.27  OA
BRANCH 23 26
ATOM     26  CA  ALA E  12       1.438  23.675   0.277  1.00 61.10 LIG 0.17  C 
ATOM     27  CB  ALA E  12       2.269  23.526  -1.007  1.00 65.27 LIG 0.04  C 
BRANCH 26 28
ATOM     28  C   ALA E  12       0.073  23.029   0.104  1.00 54.59 LIG 0.24  C 
ATOM     29  N   ALA E  13      -0.920  23.881  -0.149  1.00 64.78 LIG-0.35  N 
ATOM     30 H    ALA E  13      -0.806  24.725  -0.273  1.00 64.78 LIG 0.16  HD
ATOM     31 O    ALA E  12      -0.071  21.805   0.159  1.00 69.11 LIG-0.27  OA
BRANCH 29 32
ATOM     32  CA  ALA E  13      -2.305  23.447  -0.239  1.00 54.23 LIG 0.17  C 
ATOM     33  CB  ALA E  13      -2.442  22.356  -1.301  1.00 56.27 LIG 0.04  C 
BRANCH 32 34
ATOM     34  C   ALA E  13      -2.828  22.901   1.077  1.00 65.29 LIG 0.24  C 
ATOM     35  N   ALA E  14      -4.030  23.338   1.435  1.00 85.74 LIG-0.35  N 
ATOM     36 H    ALA E  14      -4.477  23.917   0.985  1.00 85.74 LIG 0.16  HD
ATOM     37 O    ALA E  13      -2.192  22.064   1.722  1.00 75.52 LIG-0.27  OA
BRANCH 35 38
ATOM     38  CA  ALA E  14      -4.706  22.873   2.633  1.00 94.46 LIG 0.16  C 
ATOM     39  CB  ALA E  14      -4.468  23.838   3.772  1.00106.12 LIG 0.04  C 
BRANCH 38 40
ATOM     40  C   ALA E  14      -6.199  22.713   2.370  1.00 99.07 LIG 0.22  C 
ATOM     41 O    ALA E  14      -6.727  23.239   1.391  1.00120.33 LIG-0.29  OA
ENDBRANCH 38 40
ENDBRANCH 35 38
ENDBRANCH 32 34
ENDBRANCH 29 32
ENDBRANCH 26 28
ENDBRANCH 23 26
ENDBRANCH 1 22
TORSDOF 13
ENDMDL
MODEL 103
USER: ADFR SOLUTION from run 190
USER: SCORE 2.780462 LL:  -2.550 LR:  -3.962 RR:   0.000 FEB:  -0.084
USER: RMSD 3.815633
USER: SEED 189
USER: STATUS no improvement in best in 121 clusters for 5 generations
USER: GENES 15
USER: genes 0 Translation |==|  0.63199 0.36074 0.58046
USER: genes 1 Rotation |==|  0.69097 0.43557 0.54958 0.95489
USER: genes 2 Torsion [CB]-CA--N-[C] |==|  0.29214
USER: genes 3 Torsion [N]-C--CA-[N] |==|  0.04413
USER: genes 4 Torsion [C]-CA--N-[C] |==|  0.54450
USER: genes 5 Torsion [N]-C--CA-[N] |==|  0.52530
USER: genes 6 Torsion [C]-CA--N-[C] |==|  0.58294
USER: genes 7 Torsion [N]-C--CA-[N] |==|  0.57038
USER: genes 8 Torsion [N]-CA--C-[N] |==|  0.86003
USER: genes 9 Torsion [C]-N--CA-[CB] |==|  0.18554
USER: genes 10 Torsion [N]-CA--C-[N] |==|  0.55730
USER: genes 11 Torsion [C]-N--CA-[CB] |==|  0.21943
USER: genes 12 Torsion [N]-CA--C-[N] |==|  0.04254
USER: genes 13 Torsion [C]-N--CA-[C] |==|  0.77561
USER: genes 14 Torsion [N]-CA--C-[O] |==|  0.27120
ROOT
ATOM      1  CA  ALA E  11       1.750  21.122   2.642  1.00 85.35 LIG 0.17  C 
ATOM      2  CB  ALA E  11       0.592  20.568   3.474  1.00 80.46 LIG 0.04  C 
ENDROOT
BRANCH 1 3
ATOM      3  N   ALA E  11       2.416  22.200   3.365  1.00 87.15 LIG-0.35  N 
ATOM      4  C   ALA E  10       3.606  21.995   3.937  1.00 62.15 LIG 0.24  C 
ATOM      5 O    ALA E  10       4.278  20.987   3.716  1.00 65.72 LIG-0.27  OA
ATOM      6 H    ALA E  11       1.987  22.945   3.386  1.00 87.15 LIG 0.16  HD
BRANCH 4 7
ATOM      7  CA  ALA E  10       4.125  23.068   4.887  1.00 66.45 LIG 0.17  C 
ATOM      8  CB  ALA E  10       4.768  22.425   6.115  1.00 58.63 LIG 0.04  C 
BRANCH 7 9
ATOM      9  N   ALA E  10       3.071  23.981   5.305  1.00 75.43 LIG-0.35  N 
ATOM     10  C   ALA E   9       3.315  25.161   5.869  1.00 82.21 LIG 0.24  C 
ATOM     11 O    ALA E   9       4.453  25.574   6.121  1.00 73.75 LIG-0.27  OA
ATOM     12 H    ALA E  10       2.277  23.687   5.153  1.00 75.43 LIG 0.16  HD
BRANCH 10 13
ATOM     13  CA  ALA E   9       2.094  25.996   6.232  1.00 87.65 LIG 0.17  C 
ATOM     14  CB  ALA E   9       1.116  26.073   5.061  1.00 72.21 LIG 0.04  C 
BRANCH 13 15
ATOM     15  N   ALA E   9       2.557  27.320   6.627  1.00 84.24 LIG-0.35  N 
ATOM     16 H    ALA E   9       3.286  27.567   6.241  1.00 84.24 LIG 0.16  HD
ATOM     17  C   ALA E   8       1.903  28.066   7.506  1.00 61.40 LIG 0.26  C 
ATOM     18 O    ALA E   8       0.816  27.738   7.977  1.00 66.21 LIG-0.27  OA
BRANCH 17 19
ATOM     19  CA  ALA E   8       2.558  29.390   7.890  1.00 67.03 LIG 0.40  C 
ATOM     20  N   ALA E   8       2.110  29.825   9.247  1.00 60.26 LIG 0.61  N 
ATOM     21  CB  ALA E   8       4.077  29.271   7.844  1.00 64.64 LIG 0.06  C 
ENDBRANCH 17 19
ENDBRANCH 13 15
ENDBRANCH 10 13
ENDBRANCH 7 9
ENDBRANCH 4 7
ENDBRANCH 1 3
BRANCH 1 22
ATOM     22  C   ALA E  11       1.245  21.591   1.283  1.00 81.78 LIG 0.24  C 
ATOM     23  N   ALA E  12       0.520  22.707   1.247  1.00 82.91 LIG-0.35  N 
ATOM     24 H    ALA E  12       0.409  23.240   1.913  1.00 82.91 LIG 0.16  HD
ATOM     25 O    ALA E  11       1.497  20.942   0.260  1.00 89.30 LIG-0.27  OA
BRANCH 23 26
ATOM     26  CA  ALA E  12      -0.155  23.104   0.019  1.00 61.10 LIG 0.17  C 
ATOM     27  CB  ALA E  12      -1.272  22.111  -0.335  1.00 65.27 LIG 0.04  C 
BRANCH 26 28
ATOM     28  C   ALA E  12      -0.716  24.511   0.150  1.00 54.59 LIG 0.24  C 
ATOM     29  N   ALA E  13      -1.692  24.805  -0.709  1.00 64.78 LIG-0.35  N 
ATOM     30 H    ALA E  13      -2.034  24.237  -1.257  1.00 64.78 LIG 0.16  HD
ATOM     31 O    ALA E  12      -0.310  25.287   1.018  1.00 69.11 LIG-0.27  OA
BRANCH 29 32
ATOM     32  CA  ALA E  13      -2.271  26.136  -0.793  1.00 54.23 LIG 0.17  C 
ATOM     33  CB  ALA E  13      -1.349  27.057  -1.594  1.00 56.27 LIG 0.04  C 
BRANCH 32 34
ATOM     34  C   ALA E  13      -3.636  26.133  -1.456  1.00 65.29 LIG 0.24  C 
ATOM     35  N   ALA E  14      -4.215  24.942  -1.558  1.00 85.74 LIG-0.35  N 
ATOM     36 H    ALA E  14      -3.841  24.211  -1.305  1.00 85.74 LIG 0.16  HD
ATOM     37 O    ALA E  13      -4.179  27.182  -1.812  1.00 75.52 LIG-0.27  OA
BRANCH 35 38
ATOM     38  CA  ALA E  14      -5.546  24.764  -2.110  1.00 94.46 LIG 0.16  C 
ATOM     39  CB  ALA E  14      -5.714  23.350  -2.616  1.00106.12 LIG 0.04  C 
BRANCH 38 40
ATOM     40  C   ALA E  14      -6.603  25.085  -1.059  1.00 99.07 LIG 0.22  C 
ATOM     41 O    ALA E  14      -7.146  26.189  -1.028  1.00120.33 LIG-0.29  OA
ENDBRANCH 38 40
ENDBRANCH 35 38
ENDBRANCH 32 34
ENDBRANCH 29 32
ENDBRANCH 26 28
ENDBRANCH 23 26
ENDBRANCH 1 22
TORSDOF 13
ENDMDL
MODEL 104
USER: ADFR SOLUTION from run 84
USER: SCORE 4.130649 LL:  -2.463 LR:  -3.954 RR:   0.000 FEB:  -0.076
USER: RMSD 4.697153
USER: SEED 83
USER: STATUS no improvement in best in 80 clusters for 5 generations
USER: GENES 15
USER: genes 0 Translation |==|  0.63898 0.31954 0.62072
USER: genes 1 Rotation |==|  0.48254 0.34940 0.56646 0.97180
USER: genes 2 Torsion [CB]-CA--N-[C] |==|  0.40654
USER: genes 3 Torsion [N]-C--CA-[N] |==|  0.09775
USER: genes 4 Torsion [C]-CA--N-[C] |==|  0.19435
USER: genes 5 Torsion [N]-C--CA-[N] |==|  0.94918
USER: genes 6 Torsion [C]-CA--N-[C] |==|  0.83300
USER: genes 7 Torsion [N]-C--CA-[N] |==|  0.24637
USER: genes 8 Torsion [N]-CA--C-[N] |==|  0.88505
USER: genes 9 Torsion [C]-N--CA-[CB] |==|  0.16328
USER: genes 10 Torsion [N]-CA--C-[N] |==|  0.09394
USER: genes 11 Torsion [C]-N--CA-[CB] |==|  0.83497
USER: genes 12 Torsion [N]-CA--C-[N] |==|  0.40465
USER: genes 13 Torsion [C]-N--CA-[C] |==|  0.73375
USER: genes 14 Torsion [N]-CA--C-[O] |==|  0.03746
ROOT
ATOM      1  CA  ALA E  11       1.907  20.381   3.367  1.00 85.35 LIG 0.17  C 
ATOM      2  CB  ALA E  11       0.439  20.603   3.734  1.00 80.46 LIG 0.04  C 
ENDROOT
BRANCH 1 3
ATOM      3  N   ALA E  11       2.635  21.644   3.421  1.00 87.15 LIG-0.35  N 
ATOM      4  C   ALA E  10       3.915  21.670   3.802  1.00 62.15 LIG 0.24  C 
ATOM      5 O    ALA E  10       4.587  20.645   3.923  1.00 65.72 LIG-0.27  OA
ATOM      6 H    ALA E  11       2.179  22.337   3.194  1.00 87.15 LIG 0.16  HD
BRANCH 4 7
ATOM      7  CA  ALA E  10       4.537  23.033   4.086  1.00 66.45 LIG 0.17  C 
ATOM      8  CB  ALA E  10       5.751  22.882   5.001  1.00 58.63 LIG 0.04  C 
BRANCH 7 9
ATOM      9  N   ALA E  10       3.582  23.954   4.683  1.00 75.43 LIG-0.35  N 
ATOM     10  C   ALA E   9       3.118  23.814   5.923  1.00 82.21 LIG 0.24  C 
ATOM     11 O    ALA E   9       3.428  22.876   6.665  1.00 73.75 LIG-0.27  OA
ATOM     12 H    ALA E  10       3.345  24.595   4.161  1.00 75.43 LIG 0.16  HD
BRANCH 10 13
ATOM     13  CA  ALA E   9       2.134  24.877   6.393  1.00 87.65 LIG 0.17  C 
ATOM     14  CB  ALA E   9       0.705  24.340   6.392  1.00 72.21 LIG 0.04  C 
BRANCH 13 15
ATOM     15  N   ALA E   9       2.270  26.033   5.516  1.00 84.24 LIG-0.35  N 
ATOM     16 H    ALA E   9       1.550  26.241   5.093  1.00 84.24 LIG 0.16  HD
ATOM     17  C   ALA E   8       3.411  26.696   5.389  1.00 61.40 LIG 0.26  C 
ATOM     18 O    ALA E   8       4.404  26.444   6.069  1.00 66.21 LIG-0.27  OA
BRANCH 17 19
ATOM     19  CA  ALA E   8       3.427  27.827   4.365  1.00 67.03 LIG 0.40  C 
ATOM     20  N   ALA E   8       2.989  29.110   4.992  1.00 60.26 LIG 0.61  N 
ATOM     21  CB  ALA E   8       4.815  27.980   3.754  1.00 64.64 LIG 0.06  C 
ENDBRANCH 17 19
ENDBRANCH 13 15
ENDBRANCH 10 13
ENDBRANCH 7 9
ENDBRANCH 4 7
ENDBRANCH 1 3
BRANCH 1 22
ATOM     22  C   ALA E  11       2.014  19.733   1.992  1.00 81.78 LIG 0.24  C 
ATOM     23  N   ALA E  12       1.915  20.529   0.928  1.00 82.91 LIG-0.35  N 
ATOM     24 H    ALA E  12       1.906  21.388   0.959  1.00 82.91 LIG 0.16  HD
ATOM     25 O    ALA E  11       2.175  18.512   1.882  1.00 89.30 LIG-0.27  OA
BRANCH 23 26
ATOM     26  CA  ALA E  12       1.812  19.957  -0.408  1.00 61.10 LIG 0.17  C 
ATOM     27  CB  ALA E  12       0.584  19.041  -0.516  1.00 65.27 LIG 0.04  C 
BRANCH 26 28
ATOM     28  C   ALA E  12       1.749  21.057  -1.455  1.00 54.59 LIG 0.24  C 
ATOM     29  N   ALA E  13       2.457  22.148  -1.163  1.00 64.78 LIG-0.35  N 
ATOM     30 H    ALA E  13       2.967  22.216  -0.473  1.00 64.78 LIG 0.16  HD
ATOM     31 O    ALA E  12       1.115  20.912  -2.503  1.00 69.11 LIG-0.27  OA
BRANCH 29 32
ATOM     32  CA  ALA E  13       2.426  23.336  -2.001  1.00 54.23 LIG 0.17  C 
ATOM     33  CB  ALA E  13       2.897  22.990  -3.414  1.00 56.27 LIG 0.04  C 
BRANCH 32 34
ATOM     34  C   ALA E  13       1.037  23.942  -2.095  1.00 65.29 LIG 0.24  C 
ATOM     35  N   ALA E  14       1.002  25.267  -2.183  1.00 85.74 LIG-0.35  N 
ATOM     36 H    ALA E  14       1.703  25.763  -2.152  1.00 85.74 LIG 0.16  HD
ATOM     37 O    ALA E  13       0.030  23.232  -2.148  1.00 75.52 LIG-0.27  OA
BRANCH 35 38
ATOM     38  CA  ALA E  14      -0.238  26.007  -2.341  1.00 94.46 LIG 0.16  C 
ATOM     39  CB  ALA E  14      -0.186  27.285  -1.535  1.00106.12 LIG 0.04  C 
BRANCH 38 40
ATOM     40  C   ALA E  14      -0.489  26.312  -3.813  1.00 99.07 LIG 0.22  C 
ATOM     41 O    ALA E  14       0.157  25.743  -4.694  1.00120.33 LIG-0.29  OA
ENDBRANCH 38 40
ENDBRANCH 35 38
ENDBRANCH 32 34
ENDBRANCH 29 32
ENDBRANCH 26 28
ENDBRANCH 23 26
ENDBRANCH 1 22
TORSDOF 13
ENDMDL
MODEL 105
USER: ADFR SOLUTION from run 74
USER: SCORE 4.738877 LL:  -2.617 LR:  -3.953 RR:   0.000 FEB:  -0.075
USER: RMSD 3.733998
USER: SEED 73
USER: STATUS no improvement in best in 41 clusters for 5 generations
USER: GENES 15
USER: genes 0 Translation |==|  0.64035 0.32494 0.59396
USER: genes 1 Rotation |==|  0.76544 0.74488 0.48628 0.84553
USER: genes 2 Torsion [CB]-CA--N-[C] |==|  0.16772
USER: genes 3 Torsion [N]-C--CA-[N] |==|  0.13967
USER: genes 4 Torsion [C]-CA--N-[C] |==|  0.22615
USER: genes 5 Torsion [N]-C--CA-[N] |==|  0.07768
USER: genes 6 Torsion [C]-CA--N-[C] |==|  0.74882
USER: genes 7 Torsion [N]-C--CA-[N] |==|  0.54272
USER: genes 8 Torsion [N]-CA--C-[N] |==|  0.12039
USER: genes 9 Torsion [C]-N--CA-[CB] |==|  0.17870
USER: genes 10 Torsion [N]-CA--C-[N] |==|  0.12369
USER: genes 11 Torsion [C]-N--CA-[CB] |==|  0.52690
USER: genes 12 Torsion [N]-CA--C-[N] |==|  0.41906
USER: genes 13 Torsion [C]-N--CA-[C] |==|  0.77520
USER: genes 14 Torsion [N]-CA--C-[O] |==|  0.96235
ROOT
ATOM      1  CA  ALA E  11       1.938  20.478   2.885  1.00 85.35 LIG 0.17  C 
ATOM      2  CB  ALA E  11       2.499  19.397   3.812  1.00 80.46 LIG 0.04  C 
ENDROOT
BRANCH 1 3
ATOM      3  N   ALA E  11       2.753  21.685   2.971  1.00 87.15 LIG-0.35  N 
ATOM      4  C   ALA E  10       4.048  21.651   2.646  1.00 62.15 LIG 0.24  C 
ATOM      5 O    ALA E  10       4.559  20.685   2.078  1.00 65.72 LIG-0.27  OA
ATOM      6 H    ALA E  11       2.335  22.388   3.239  1.00 87.15 LIG 0.16  HD
BRANCH 4 7
ATOM      7  CA  ALA E  10       4.895  22.867   3.001  1.00 66.45 LIG 0.17  C 
ATOM      8  CB  ALA E  10       6.371  22.587   2.720  1.00 58.63 LIG 0.04  C 
BRANCH 7 9
ATOM      9  N   ALA E  10       4.725  23.262   4.391  1.00 75.43 LIG-0.35  N 
ATOM     10  C   ALA E   9       5.364  22.670   5.397  1.00 82.21 LIG 0.24  C 
ATOM     11 O    ALA E   9       6.132  21.712   5.247  1.00 73.75 LIG-0.27  OA
ATOM     12 H    ALA E  10       4.173  23.913   4.502  1.00 75.43 LIG 0.16  HD
BRANCH 10 13
ATOM     13  CA  ALA E   9       5.079  23.219   6.788  1.00 87.65 LIG 0.17  C 
ATOM     14  CB  ALA E   9       5.220  22.129   7.848  1.00 72.21 LIG 0.04  C 
BRANCH 13 15
ATOM     15  N   ALA E   9       3.735  23.784   6.779  1.00 84.24 LIG-0.35  N 
ATOM     16 H    ALA E   9       3.117  23.223   6.986  1.00 84.24 LIG 0.16  HD
ATOM     17  C   ALA E   8       3.503  25.054   6.477  1.00 61.40 LIG 0.26  C 
ATOM     18 O    ALA E   8       4.405  25.865   6.276  1.00 66.21 LIG-0.27  OA
BRANCH 17 19
ATOM     19  CA  ALA E   8       2.038  25.478   6.420  1.00 67.03 LIG 0.40  C 
ATOM     20  N   ALA E   8       1.897  26.791   5.723  1.00 60.26 LIG 0.61  N 
ATOM     21  CB  ALA E   8       1.197  24.414   5.726  1.00 64.64 LIG 0.06  C 
ENDBRANCH 17 19
ENDBRANCH 13 15
ENDBRANCH 10 13
ENDBRANCH 7 9
ENDBRANCH 4 7
ENDBRANCH 1 3
BRANCH 1 22
ATOM     22  C   ALA E  11       0.481  20.762   3.228  1.00 81.78 LIG 0.24  C 
ATOM     23  N   ALA E  12      -0.068  21.863   2.717  1.00 82.91 LIG-0.35  N 
ATOM     24 H    ALA E  12       0.301  22.363   2.122  1.00 82.91 LIG 0.16  HD
ATOM     25 O    ALA E  11      -0.153  19.998   3.966  1.00 89.30 LIG-0.27  OA
BRANCH 23 26
ATOM     26  CA  ALA E  12      -1.387  22.297   3.157  1.00 61.10 LIG 0.17  C 
ATOM     27  CB  ALA E  12      -1.365  22.681   4.644  1.00 65.27 LIG 0.04  C 
BRANCH 26 28
ATOM     28  C   ALA E  12      -1.872  23.466   2.314  1.00 54.59 LIG 0.24  C 
ATOM     29  N   ALA E  13      -1.680  23.326   1.002  1.00 64.78 LIG-0.35  N 
ATOM     30 H    ALA E  13      -1.368  22.612   0.638  1.00 64.78 LIG 0.16  HD
ATOM     31 O    ALA E  12      -2.432  24.439   2.825  1.00 69.11 LIG-0.27  OA
BRANCH 29 32
ATOM     32  CA  ALA E  13      -1.988  24.389   0.060  1.00 54.23 LIG 0.17  C 
ATOM     33  CB  ALA E  13      -1.895  23.861  -1.372  1.00 56.27 LIG 0.04  C 
BRANCH 32 34
ATOM     34  C   ALA E  13      -3.379  24.962   0.268  1.00 65.29 LIG 0.24  C 
ATOM     35  N   ALA E  14      -3.525  26.236  -0.076  1.00 85.74 LIG-0.35  N 
ATOM     36 H    ALA E  14      -2.879  26.727  -0.362  1.00 85.74 LIG 0.16  HD
ATOM     37 O    ALA E  13      -4.309  24.258   0.670  1.00 75.52 LIG-0.27  OA
BRANCH 35 38
ATOM     38  CA  ALA E  14      -4.800  26.926  -0.000  1.00 94.46 LIG 0.16  C 
ATOM     39  CB  ALA E  14      -4.580  28.417   0.108  1.00106.12 LIG 0.04  C 
BRANCH 38 40
ATOM     40  C   ALA E  14      -5.653  26.598  -1.221  1.00 99.07 LIG 0.22  C 
ATOM     41 O    ALA E  14      -5.158  26.054  -2.208  1.00120.33 LIG-0.29  OA
ENDBRANCH 38 40
ENDBRANCH 35 38
ENDBRANCH 32 34
ENDBRANCH 29 32
ENDBRANCH 26 28
ENDBRANCH 23 26
ENDBRANCH 1 22
TORSDOF 13
ENDMDL
MODEL 106
USER: ADFR SOLUTION from run 13
USER: SCORE 5.052609 LL:  -2.375 LR:  -3.942 RR:   0.000 FEB:  -0.064
USER: RMSD 4.335943
USER: SEED 577102
USER: STATUS no improvement in best in 58 clusters for 5 generations
USER: GENES 15
USER: genes 0 Translation |==|  0.57148 0.27446 0.55899
USER: genes 1 Rotation |==|  0.72960 0.57010 0.57069 0.93287
USER: genes 2 Torsion [CB]-CA--N-[C] |==|  0.19487
USER: genes 3 Torsion [N]-C--CA-[N] |==|  0.54439
USER: genes 4 Torsion [C]-CA--N-[C] |==|  0.63289
USER: genes 5 Torsion [N]-C--CA-[N] |==|  0.16691
USER: genes 6 Torsion [C]-CA--N-[C] |==|  0.77993
USER: genes 7 Torsion [N]-C--CA-[N] |==|  0.35782
USER: genes 8 Torsion [N]-CA--C-[N] |==|  0.09602
USER: genes 9 Torsion [C]-N--CA-[CB] |==|  0.84384
USER: genes 10 Torsion [N]-CA--C-[N] |==|  0.41020
USER: genes 11 Torsion [C]-N--CA-[CB] |==|  0.84418
USER: genes 12 Torsion [N]-CA--C-[N] |==|  0.37245
USER: genes 13 Torsion [C]-N--CA-[C] |==|  0.55514
USER: genes 14 Torsion [N]-CA--C-[O] |==|  0.99668
ROOT
ATOM      1  CA  ALA E  11       0.388  19.569   2.256  1.00 85.35 LIG 0.17  C 
ATOM      2  CB  ALA E  11      -0.057  18.642   3.388  1.00 80.46 LIG 0.04  C 
ENDROOT
BRANCH 1 3
ATOM      3  N   ALA E  11       0.990  20.779   2.805  1.00 87.15 LIG-0.35  N 
ATOM      4  C   ALA E  10       2.179  20.727   3.412  1.00 62.15 LIG 0.24  C 
ATOM      5 O    ALA E  10       2.902  19.732   3.360  1.00 65.72 LIG-0.27  OA
ATOM      6 H    ALA E  11       0.525  21.496   2.703  1.00 87.15 LIG 0.16  HD
BRANCH 4 7
ATOM      7  CA  ALA E  10       2.629  21.962   4.185  1.00 66.45 LIG 0.17  C 
ATOM      8  CB  ALA E  10       2.287  23.231   3.405  1.00 58.63 LIG 0.04  C 
BRANCH 7 9
ATOM      9  N   ALA E  10       4.055  21.932   4.476  1.00 75.43 LIG-0.35  N 
ATOM     10  C   ALA E   9       4.554  22.187   5.683  1.00 82.21 LIG 0.24  C 
ATOM     11 O    ALA E   9       3.858  22.504   6.655  1.00 73.75 LIG-0.27  OA
ATOM     12 H    ALA E  10       4.543  21.734   3.796  1.00 75.43 LIG 0.16  HD
BRANCH 10 13
ATOM     13  CA  ALA E   9       6.068  22.097   5.814  1.00 87.65 LIG 0.17  C 
ATOM     14  CB  ALA E   9       6.510  22.349   7.254  1.00 72.21 LIG 0.04  C 
BRANCH 13 15
ATOM     15  N   ALA E   9       6.655  23.068   4.899  1.00 84.24 LIG-0.35  N 
ATOM     16 H    ALA E   9       6.914  23.796   5.277  1.00 84.24 LIG 0.16  HD
ATOM     17  C   ALA E   8       6.772  22.835   3.599  1.00 61.40 LIG 0.26  C 
ATOM     18 O    ALA E   8       6.483  21.754   3.089  1.00 66.21 LIG-0.27  OA
BRANCH 17 19
ATOM     19  CA  ALA E   8       7.322  23.980   2.754  1.00 67.03 LIG 0.40  C 
ATOM     20  N   ALA E   8       8.454  23.508   1.901  1.00 60.26 LIG 0.61  N 
ATOM     21  CB  ALA E   8       6.222  24.586   1.889  1.00 64.64 LIG 0.06  C 
ENDBRANCH 17 19
ENDBRANCH 13 15
ENDBRANCH 10 13
ENDBRANCH 7 9
ENDBRANCH 4 7
ENDBRANCH 1 3
BRANCH 1 22
ATOM     22  C   ALA E  11      -0.790  19.895   1.347  1.00 81.78 LIG 0.24  C 
ATOM     23  N   ALA E  12      -0.717  21.008   0.619  1.00 82.91 LIG-0.35  N 
ATOM     24 H    ALA E  12      -0.012  21.496   0.540  1.00 82.91 LIG 0.16  HD
ATOM     25 O    ALA E  11      -1.778  19.151   1.305  1.00 89.30 LIG-0.27  OA
BRANCH 23 26
ATOM     26  CA  ALA E  12      -1.881  21.480  -0.118  1.00 61.10 LIG 0.17  C 
ATOM     27  CB  ALA E  12      -2.399  20.393  -1.072  1.00 65.27 LIG 0.04  C 
BRANCH 26 28
ATOM     28  C   ALA E  12      -2.978  21.914   0.839  1.00 54.59 LIG 0.24  C 
ATOM     29  N   ALA E  13      -3.737  22.919   0.401  1.00 64.78 LIG-0.35  N 
ATOM     30 H    ALA E  13      -3.667  23.263  -0.384  1.00 64.78 LIG 0.16  HD
ATOM     31 O    ALA E  12      -3.157  21.339   1.916  1.00 69.11 LIG-0.27  OA
BRANCH 29 32
ATOM     32  CA  ALA E  13      -4.764  23.528   1.230  1.00 54.23 LIG 0.17  C 
ATOM     33  CB  ALA E  13      -5.749  22.461   1.711  1.00 56.27 LIG 0.04  C 
BRANCH 32 34
ATOM     34  C   ALA E  13      -4.187  24.228   2.447  1.00 65.29 LIG 0.24  C 
ATOM     35  N   ALA E  14      -4.673  25.440   2.688  1.00 85.74 LIG-0.35  N 
ATOM     36 H    ALA E  14      -5.246  25.831   2.180  1.00 85.74 LIG 0.16  HD
ATOM     37 O    ALA E  13      -3.371  23.667   3.183  1.00 75.52 LIG-0.27  OA
BRANCH 35 38
ATOM     38  CA  ALA E  14      -4.277  26.226   3.843  1.00 94.46 LIG 0.16  C 
ATOM     39  CB  ALA E  14      -2.916  26.842   3.612  1.00106.12 LIG 0.04  C 
BRANCH 38 40
ATOM     40  C   ALA E  14      -5.313  27.308   4.128  1.00 99.07 LIG 0.22  C 
ATOM     41 O    ALA E  14      -6.303  27.437   3.409  1.00120.33 LIG-0.29  OA
ENDBRANCH 38 40
ENDBRANCH 35 38
ENDBRANCH 32 34
ENDBRANCH 29 32
ENDBRANCH 26 28
ENDBRANCH 23 26
ENDBRANCH 1 22
TORSDOF 13
ENDMDL
MODEL 107
USER: ADFR SOLUTION from run 10
USER: SCORE 5.048260 LL:  -2.408 LR:  -3.944 RR:   0.000 FEB:  -0.066
USER: RMSD 5.394086
USER: SEED 607314
USER: STATUS searching
USER: GENES 15
USER: genes 0 Translation |==|  0.56538 0.28398 0.57040
USER: genes 1 Rotation |==|  0.77295 0.66904 0.56844 0.87715
USER: genes 2 Torsion [CB]-CA--N-[C] |==|  0.14702
USER: genes 3 Torsion [N]-C--CA-[N] |==|  0.51380
USER: genes 4 Torsion [C]-CA--N-[C] |==|  0.64230
USER: genes 5 Torsion [N]-C--CA-[N] |==|  0.15652
USER: genes 6 Torsion [C]-CA--N-[C] |==|  0.77326
USER: genes 7 Torsion [N]-C--CA-[N] |==|  0.35510
USER: genes 8 Torsion [N]-CA--C-[N] |==|  0.08779
USER: genes 9 Torsion [C]-N--CA-[CB] |==|  0.51111
USER: genes 10 Torsion [N]-CA--C-[N] |==|  0.42794
USER: genes 11 Torsion [C]-N--CA-[CB] |==|  0.84388
USER: genes 12 Torsion [N]-CA--C-[N] |==|  0.39966
USER: genes 13 Torsion [C]-N--CA-[C] |==|  0.77105
USER: genes 14 Torsion [N]-CA--C-[O] |==|  0.97263
ROOT
ATOM      1  CA  ALA E  11       0.251  19.741   2.461  1.00 85.35 LIG 0.17  C 
ATOM      2  CB  ALA E  11       0.438  18.577   3.437  1.00 80.46 LIG 0.04  C 
ENDROOT
BRANCH 1 3
ATOM      3  N   ALA E  11       0.853  20.953   3.004  1.00 87.15 LIG-0.35  N 
ATOM      4  C   ALA E  10       2.124  20.951   3.416  1.00 62.15 LIG 0.24  C 
ATOM      5 O    ALA E  10       2.892  20.019   3.176  1.00 65.72 LIG-0.27  OA
ATOM      6 H    ALA E  11       0.333  21.637   3.032  1.00 87.15 LIG 0.16  HD
BRANCH 4 7
ATOM      7  CA  ALA E  10       2.611  22.161   4.205  1.00 66.45 LIG 0.17  C 
ATOM      8  CB  ALA E  10       2.303  23.450   3.444  1.00 58.63 LIG 0.04  C 
BRANCH 7 9
ATOM      9  N   ALA E  10       4.036  22.087   4.491  1.00 75.43 LIG-0.35  N 
ATOM     10  C   ALA E   9       4.539  22.246   5.713  1.00 82.21 LIG 0.24  C 
ATOM     11 O    ALA E   9       3.849  22.504   6.706  1.00 73.75 LIG-0.27  OA
ATOM     12 H    ALA E  10       4.521  21.931   3.798  1.00 75.43 LIG 0.16  HD
BRANCH 10 13
ATOM     13  CA  ALA E   9       6.052  22.122   5.835  1.00 87.65 LIG 0.17  C 
ATOM     14  CB  ALA E   9       6.506  22.355   7.275  1.00 72.21 LIG 0.04  C 
BRANCH 13 15
ATOM     15  N   ALA E   9       6.655  23.086   4.924  1.00 84.24 LIG-0.35  N 
ATOM     16 H    ALA E   9       6.903  23.819   5.300  1.00 84.24 LIG 0.16  HD
ATOM     17  C   ALA E   8       6.802  22.841   3.629  1.00 61.40 LIG 0.26  C 
ATOM     18 O    ALA E   8       6.530  21.754   3.124  1.00 66.21 LIG-0.27  OA
BRANCH 17 19
ATOM     19  CA  ALA E   8       7.366  23.980   2.785  1.00 67.03 LIG 0.40  C 
ATOM     20  N   ALA E   8       8.534  23.511   1.981  1.00 60.26 LIG 0.61  N 
ATOM     21  CB  ALA E   8       6.290  24.557   1.872  1.00 64.64 LIG 0.06  C 
ENDBRANCH 17 19
ENDBRANCH 13 15
ENDBRANCH 10 13
ENDBRANCH 7 9
ENDBRANCH 4 7
ENDBRANCH 1 3
BRANCH 1 22
ATOM     22  C   ALA E  11      -1.228  19.940   2.156  1.00 81.78 LIG 0.24  C 
ATOM     23  N   ALA E  12      -1.621  21.157   1.783  1.00 82.91 LIG-0.35  N 
ATOM     24 H    ALA E  12      -1.089  21.807   1.596  1.00 82.91 LIG 0.16  HD
ATOM     25 O    ALA E  11      -2.026  19.001   2.267  1.00 89.30 LIG-0.27  OA
BRANCH 23 26
ATOM     26  CA  ALA E  12      -3.039  21.466   1.667  1.00 61.10 LIG 0.17  C 
ATOM     27  CB  ALA E  12      -3.244  22.891   1.130  1.00 65.27 LIG 0.04  C 
BRANCH 26 28
ATOM     28  C   ALA E  12      -3.733  20.455   0.768  1.00 54.59 LIG 0.24  C 
ATOM     29  N   ALA E  13      -5.035  20.297   1.007  1.00 64.78 LIG-0.35  N 
ATOM     30 H    ALA E  13      -5.477  20.767   1.575  1.00 64.78 LIG 0.16  HD
ATOM     31 O    ALA E  12      -3.124  19.869  -0.130  1.00 69.11 LIG-0.27  OA
BRANCH 29 32
ATOM     32  CA  ALA E  13      -5.831  19.297   0.313  1.00 54.23 LIG 0.17  C 
ATOM     33  CB  ALA E  13      -5.722  19.500  -1.199  1.00 56.27 LIG 0.04  C 
BRANCH 32 34
ATOM     34  C   ALA E  13      -5.391  17.880   0.637  1.00 65.29 LIG 0.24  C 
ATOM     35  N   ALA E  14      -6.370  16.986   0.715  1.00 85.74 LIG-0.35  N 
ATOM     36 H    ALA E  14      -7.202  17.186   0.628  1.00 85.74 LIG 0.16  HD
ATOM     37 O    ALA E  13      -4.198  17.590   0.753  1.00 75.52 LIG-0.27  OA
BRANCH 35 38
ATOM     38  CA  ALA E  14      -6.124  15.576   0.956  1.00 94.46 LIG 0.16  C 
ATOM     39  CB  ALA E  14      -7.342  14.935   1.580  1.00106.12 LIG 0.04  C 
BRANCH 38 40
ATOM     40  C   ALA E  14      -5.757  14.872  -0.346  1.00 99.07 LIG 0.22  C 
ATOM     41 O    ALA E  14      -5.875  15.447  -1.428  1.00120.33 LIG-0.29  OA
ENDBRANCH 38 40
ENDBRANCH 35 38
ENDBRANCH 32 34
ENDBRANCH 29 32
ENDBRANCH 26 28
ENDBRANCH 23 26
ENDBRANCH 1 22
TORSDOF 13
ENDMDL
MODEL 108
USER: ADFR SOLUTION from run 70
USER: SCORE 4.328727 LL:  -2.385 LR:  -3.938 RR:   0.000 FEB:  -0.060
USER: RMSD 4.191821
USER: SEED 69
USER: STATUS no improvement in best in 94 clusters for 5 generations
USER: GENES 15
USER: genes 0 Translation |==|  0.61038 0.32690 0.56959
USER: genes 1 Rotation |==|  0.60117 0.45806 0.45998 0.98621
USER: genes 2 Torsion [CB]-CA--N-[C] |==|  0.22698
USER: genes 3 Torsion [N]-C--CA-[N] |==|  0.27866
USER: genes 4 Torsion [C]-CA--N-[C] |==|  0.66820
USER: genes 5 Torsion [N]-C--CA-[N] |==|  0.17970
USER: genes 6 Torsion [C]-CA--N-[C] |==|  0.77304
USER: genes 7 Torsion [N]-C--CA-[N] |==|  0.24418
USER: genes 8 Torsion [N]-CA--C-[N] |==|  0.88519
USER: genes 9 Torsion [C]-N--CA-[CB] |==|  0.84444
USER: genes 10 Torsion [N]-CA--C-[N] |==|  0.40609
USER: genes 11 Torsion [C]-N--CA-[CB] |==|  0.52248
USER: genes 12 Torsion [N]-CA--C-[N] |==|  0.43656
USER: genes 13 Torsion [C]-N--CA-[C] |==|  0.73315
USER: genes 14 Torsion [N]-CA--C-[O] |==|  0.02222
ROOT
ATOM      1  CA  ALA E  11       1.264  20.513   2.447  1.00 85.35 LIG 0.17  C 
ATOM      2  CB  ALA E  11       0.240  20.696   3.569  1.00 80.46 LIG 0.04  C 
ENDROOT
BRANCH 1 3
ATOM      3  N   ALA E  11       2.386  21.425   2.637  1.00 87.15 LIG-0.35  N 
ATOM      4  C   ALA E  10       3.372  21.116   3.483  1.00 62.15 LIG 0.24  C 
ATOM      5 O    ALA E  10       3.491  19.993   3.974  1.00 65.72 LIG-0.27  OA
ATOM      6 H    ALA E  11       2.350  22.148   2.172  1.00 87.15 LIG 0.16  HD
BRANCH 4 7
ATOM      7  CA  ALA E  10       4.372  22.213   3.830  1.00 66.45 LIG 0.17  C 
ATOM      8  CB  ALA E  10       5.795  21.656   3.824  1.00 58.63 LIG 0.04  C 
BRANCH 7 9
ATOM      9  N   ALA E  10       4.087  22.821   5.121  1.00 75.43 LIG-0.35  N 
ATOM     10  C   ALA E   9       3.807  24.115   5.267  1.00 82.21 LIG 0.24  C 
ATOM     11 O    ALA E   9       3.797  24.920   4.329  1.00 73.75 LIG-0.27  OA
ATOM     12 H    ALA E  10       4.116  22.268   5.779  1.00 75.43 LIG 0.16  HD
BRANCH 10 13
ATOM     13  CA  ALA E   9       3.519  24.580   6.688  1.00 87.65 LIG 0.17  C 
ATOM     14  CB  ALA E   9       3.044  26.031   6.704  1.00 72.21 LIG 0.04  C 
BRANCH 13 15
ATOM     15  N   ALA E   9       4.737  24.410   7.470  1.00 84.24 LIG-0.35  N 
ATOM     16 H    ALA E   9       5.201  25.129   7.560  1.00 84.24 LIG 0.16  HD
ATOM     17  C   ALA E   8       5.086  23.242   7.992  1.00 61.40 LIG 0.26  C 
ATOM     18 O    ALA E   8       4.366  22.248   7.935  1.00 66.21 LIG-0.27  OA
BRANCH 17 19
ATOM     19  CA  ALA E   8       6.433  23.197   8.708  1.00 67.03 LIG 0.40  C 
ATOM     20  N   ALA E   8       6.279  23.580  10.144  1.00 60.26 LIG 0.61  N 
ATOM     21  CB  ALA E   8       7.058  21.812   8.591  1.00 64.64 LIG 0.06  C 
ENDBRANCH 17 19
ENDBRANCH 13 15
ENDBRANCH 10 13
ENDBRANCH 7 9
ENDBRANCH 4 7
ENDBRANCH 1 3
BRANCH 1 22
ATOM     22  C   ALA E  11       0.601  20.718   1.090  1.00 81.78 LIG 0.24  C 
ATOM     23  N   ALA E  12       0.434  21.971   0.671  1.00 82.91 LIG-0.35  N 
ATOM     24 H    ALA E  12       0.768  22.665   1.054  1.00 82.91 LIG 0.16  HD
ATOM     25 O    ALA E  11       0.226  19.749   0.419  1.00 89.30 LIG-0.27  OA
BRANCH 23 26
ATOM     26  CA  ALA E  12      -0.363  22.247  -0.517  1.00 61.10 LIG 0.17  C 
ATOM     27  CB  ALA E  12       0.176  21.468  -1.727  1.00 65.27 LIG 0.04  C 
BRANCH 26 28
ATOM     28  C   ALA E  12      -1.823  21.903  -0.272  1.00 54.59 LIG 0.24  C 
ATOM     29  N   ALA E  13      -2.696  22.692  -0.899  1.00 64.78 LIG-0.35  N 
ATOM     30 H    ALA E  13      -2.469  23.309  -1.453  1.00 64.78 LIG 0.16  HD
ATOM     31 O    ALA E  12      -2.149  20.940   0.427  1.00 69.11 LIG-0.27  OA
BRANCH 29 32
ATOM     32  CA  ALA E  13      -4.130  22.572  -0.694  1.00 54.23 LIG 0.17  C 
ATOM     33  CB  ALA E  13      -4.876  23.463  -1.688  1.00 56.27 LIG 0.04  C 
BRANCH 32 34
ATOM     34  C   ALA E  13      -4.622  21.146  -0.868  1.00 65.29 LIG 0.24  C 
ATOM     35  N   ALA E  14      -5.768  20.864  -0.258  1.00 85.74 LIG-0.35  N 
ATOM     36 H    ALA E  14      -6.194  21.425   0.235  1.00 85.74 LIG 0.16  HD
ATOM     37 O    ALA E  13      -4.018  20.341  -1.580  1.00 75.52 LIG-0.27  OA
BRANCH 35 38
ATOM     38  CA  ALA E  14      -6.413  19.568  -0.368  1.00 94.46 LIG 0.16  C 
ATOM     39  CB  ALA E  14      -7.022  19.175   0.959  1.00106.12 LIG 0.04  C 
BRANCH 38 40
ATOM     40  C   ALA E  14      -7.479  19.597  -1.458  1.00 99.07 LIG 0.22  C 
ATOM     41 O    ALA E  14      -7.594  20.572  -2.200  1.00120.33 LIG-0.29  OA
ENDBRANCH 38 40
ENDBRANCH 35 38
ENDBRANCH 32 34
ENDBRANCH 29 32
ENDBRANCH 26 28
ENDBRANCH 23 26
ENDBRANCH 1 22
TORSDOF 13
ENDMDL
MODEL 109
USER: ADFR SOLUTION from run 65
USER: SCORE 3.962615 LL:  -2.583 LR:  -3.944 RR:   0.000 FEB:  -0.067
USER: RMSD 3.707525
USER: SEED 64
USER: STATUS no improvement in best in 13 clusters for 5 generations
USER: GENES 15
USER: genes 0 Translation |==|  0.56172 0.25491 0.62034
USER: genes 1 Rotation |==|  0.53018 0.35314 0.58249 0.96980
USER: genes 2 Torsion [CB]-CA--N-[C] |==|  0.45277
USER: genes 3 Torsion [N]-C--CA-[N] |==|  0.45556
USER: genes 4 Torsion [C]-CA--N-[C] |==|  0.67016
USER: genes 5 Torsion [N]-C--CA-[N] |==|  0.16723
USER: genes 6 Torsion [C]-CA--N-[C] |==|  0.78224
USER: genes 7 Torsion [N]-C--CA-[N] |==|  0.37938
USER: genes 8 Torsion [N]-CA--C-[N] |==|  0.83356
USER: genes 9 Torsion [C]-N--CA-[CB] |==|  0.17139
USER: genes 10 Torsion [N]-CA--C-[N] |==|  0.08893
USER: genes 11 Torsion [C]-N--CA-[CB] |==|  0.84443
USER: genes 12 Torsion [N]-CA--C-[N] |==|  0.40000
USER: genes 13 Torsion [C]-N--CA-[C] |==|  0.76497
USER: genes 14 Torsion [N]-CA--C-[O] |==|  0.98608
ROOT
ATOM      1  CA  ALA E  11       0.169  19.217   3.360  1.00 85.35 LIG 0.17  C 
ATOM      2  CB  ALA E  11      -1.296  19.201   3.802  1.00 80.46 LIG 0.04  C 
ENDROOT
BRANCH 1 3
ATOM      3  N   ALA E  11       0.749  20.535   3.594  1.00 87.15 LIG-0.35  N 
ATOM      4  C   ALA E  10       2.074  20.697   3.608  1.00 62.15 LIG 0.24  C 
ATOM      5 O    ALA E  10       2.850  19.818   3.231  1.00 65.72 LIG-0.27  OA
ATOM      6 H    ALA E  11       0.179  21.168   3.716  1.00 87.15 LIG 0.16  HD
BRANCH 4 7
ATOM      7  CA  ALA E  10       2.616  22.031   4.110  1.00 66.45 LIG 0.17  C 
ATOM      8  CB  ALA E  10       2.374  23.127   3.072  1.00 58.63 LIG 0.04  C 
BRANCH 7 9
ATOM      9  N   ALA E  10       4.034  21.958   4.427  1.00 75.43 LIG-0.35  N 
ATOM     10  C   ALA E   9       4.516  22.183   5.648  1.00 82.21 LIG 0.24  C 
ATOM     11 O    ALA E   9       3.811  22.505   6.611  1.00 73.75 LIG-0.27  OA
ATOM     12 H    ALA E  10       4.530  21.758   3.754  1.00 75.43 LIG 0.16  HD
BRANCH 10 13
ATOM     13  CA  ALA E   9       6.025  22.050   5.806  1.00 87.65 LIG 0.17  C 
ATOM     14  CB  ALA E   9       6.445  22.267   7.258  1.00 72.21 LIG 0.04  C 
BRANCH 13 15
ATOM     15  N   ALA E   9       6.655  23.019   4.919  1.00 84.24 LIG-0.35  N 
ATOM     16 H    ALA E   9       6.936  23.729   5.315  1.00 84.24 LIG 0.16  HD
ATOM     17  C   ALA E   8       6.777  22.812   3.615  1.00 61.40 LIG 0.26  C 
ATOM     18 O    ALA E   8       6.455  21.754   3.078  1.00 66.21 LIG-0.27  OA
BRANCH 17 19
ATOM     19  CA  ALA E   8       7.376  23.955   2.801  1.00 67.03 LIG 0.40  C 
ATOM     20  N   ALA E   8       8.369  23.435   1.814  1.00 60.26 LIG 0.61  N 
ATOM     21  CB  ALA E   8       6.279  24.739   2.089  1.00 64.64 LIG 0.06  C 
ENDBRANCH 17 19
ENDBRANCH 13 15
ENDBRANCH 10 13
ENDBRANCH 7 9
ENDBRANCH 4 7
ENDBRANCH 1 3
BRANCH 1 22
ATOM     22  C   ALA E  11       0.283  18.809   1.897  1.00 81.78 LIG 0.24  C 
ATOM     23  N   ALA E  12      -0.307  19.589   0.993  1.00 82.91 LIG-0.35  N 
ATOM     24 H    ALA E  12      -0.650  20.360   1.161  1.00 82.91 LIG 0.16  HD
ATOM     25 O    ALA E  11       0.892  17.781   1.576  1.00 89.30 LIG-0.27  OA
BRANCH 23 26
ATOM     26  CA  ALA E  12      -0.405  19.158  -0.395  1.00 61.10 LIG 0.17  C 
ATOM     27  CB  ALA E  12      -1.231  17.868  -0.508  1.00 65.27 LIG 0.04  C 
BRANCH 26 28
ATOM     28  C   ALA E  12      -1.015  20.256  -1.252  1.00 54.59 LIG 0.24  C 
ATOM     29  N   ALA E  13      -0.734  21.497  -0.854  1.00 64.78 LIG-0.35  N 
ATOM     30 H    ALA E  13      -0.199  21.681  -0.206  1.00 64.78 LIG 0.16  HD
ATOM     31 O    ALA E  12      -1.683  19.992  -2.256  1.00 69.11 LIG-0.27  OA
BRANCH 29 32
ATOM     32  CA  ALA E  13      -1.319  22.663  -1.495  1.00 54.23 LIG 0.17  C 
ATOM     33  CB  ALA E  13      -1.017  22.642  -2.994  1.00 56.27 LIG 0.04  C 
BRANCH 32 34
ATOM     34  C   ALA E  13      -2.824  22.731  -1.311  1.00 65.29 LIG 0.24  C 
ATOM     35  N   ALA E  14      -3.322  23.953  -1.161  1.00 85.74 LIG-0.35  N 
ATOM     36 H    ALA E  14      -2.837  24.662  -1.129  1.00 85.74 LIG 0.16  HD
ATOM     37 O    ALA E  13      -3.523  21.717  -1.364  1.00 75.52 LIG-0.27  OA
BRANCH 35 38
ATOM     38  CA  ALA E  14      -4.746  24.207  -1.034  1.00 94.46 LIG 0.16  C 
ATOM     39  CB  ALA E  14      -4.980  25.478  -0.250  1.00106.12 LIG 0.04  C 
BRANCH 38 40
ATOM     40  C   ALA E  14      -5.392  24.301  -2.411  1.00 99.07 LIG 0.22  C 
ATOM     41 O    ALA E  14      -4.707  24.258  -3.433  1.00120.33 LIG-0.29  OA
ENDBRANCH 38 40
ENDBRANCH 35 38
ENDBRANCH 32 34
ENDBRANCH 29 32
ENDBRANCH 26 28
ENDBRANCH 23 26
ENDBRANCH 1 22
TORSDOF 13
ENDMDL
MODEL 110
USER: ADFR SOLUTION from run 10
USER: SCORE 4.804318 LL:  -2.424 LR:  -3.927 RR:   0.000 FEB:  -0.049
USER: RMSD 4.397794
USER: SEED 607314
USER: STATUS searching
USER: GENES 15
USER: genes 0 Translation |==|  0.56538 0.28398 0.57040
USER: genes 1 Rotation |==|  0.77295 0.66904 0.56844 0.87715
USER: genes 2 Torsion [CB]-CA--N-[C] |==|  0.14702
USER: genes 3 Torsion [N]-C--CA-[N] |==|  0.51380
USER: genes 4 Torsion [C]-CA--N-[C] |==|  0.64230
USER: genes 5 Torsion [N]-C--CA-[N] |==|  0.15652
USER: genes 6 Torsion [C]-CA--N-[C] |==|  0.77326
USER: genes 7 Torsion [N]-C--CA-[N] |==|  0.35510
USER: genes 8 Torsion [N]-CA--C-[N] |==|  0.07309
USER: genes 9 Torsion [C]-N--CA-[CB] |==|  0.51111
USER: genes 10 Torsion [N]-CA--C-[N] |==|  0.42794
USER: genes 11 Torsion [C]-N--CA-[CB] |==|  0.51686
USER: genes 12 Torsion [N]-CA--C-[N] |==|  0.43362
USER: genes 13 Torsion [C]-N--CA-[C] |==|  0.77102
USER: genes 14 Torsion [N]-CA--C-[O] |==|  0.97445
ROOT
ATOM      1  CA  ALA E  11       0.251  19.741   2.461  1.00 85.35 LIG 0.17  C 
ATOM      2  CB  ALA E  11       0.438  18.577   3.437  1.00 80.46 LIG 0.04  C 
ENDROOT
BRANCH 1 3
ATOM      3  N   ALA E  11       0.853  20.953   3.004  1.00 87.15 LIG-0.35  N 
ATOM      4  C   ALA E  10       2.124  20.951   3.416  1.00 62.15 LIG 0.24  C 
ATOM      5 O    ALA E  10       2.892  20.019   3.176  1.00 65.72 LIG-0.27  OA
ATOM      6 H    ALA E  11       0.333  21.637   3.032  1.00 87.15 LIG 0.16  HD
BRANCH 4 7
ATOM      7  CA  ALA E  10       2.611  22.161   4.205  1.00 66.45 LIG 0.17  C 
ATOM      8  CB  ALA E  10       2.303  23.450   3.444  1.00 58.63 LIG 0.04  C 
BRANCH 7 9
ATOM      9  N   ALA E  10       4.036  22.087   4.491  1.00 75.43 LIG-0.35  N 
ATOM     10  C   ALA E   9       4.539  22.246   5.713  1.00 82.21 LIG 0.24  C 
ATOM     11 O    ALA E   9       3.849  22.504   6.706  1.00 73.75 LIG-0.27  OA
ATOM     12 H    ALA E  10       4.521  21.931   3.798  1.00 75.43 LIG 0.16  HD
BRANCH 10 13
ATOM     13  CA  ALA E   9       6.052  22.122   5.835  1.00 87.65 LIG 0.17  C 
ATOM     14  CB  ALA E   9       6.506  22.355   7.275  1.00 72.21 LIG 0.04  C 
BRANCH 13 15
ATOM     15  N   ALA E   9       6.655  23.086   4.924  1.00 84.24 LIG-0.35  N 
ATOM     16 H    ALA E   9       6.903  23.819   5.300  1.00 84.24 LIG 0.16  HD
ATOM     17  C   ALA E   8       6.802  22.841   3.629  1.00 61.40 LIG 0.26  C 
ATOM     18 O    ALA E   8       6.530  21.754   3.124  1.00 66.21 LIG-0.27  OA
BRANCH 17 19
ATOM     19  CA  ALA E   8       7.366  23.980   2.785  1.00 67.03 LIG 0.40  C 
ATOM     20  N   ALA E   8       8.534  23.511   1.981  1.00 60.26 LIG 0.61  N 
ATOM     21  CB  ALA E   8       6.290  24.557   1.872  1.00 64.64 LIG 0.06  C 
ENDBRANCH 17 19
ENDBRANCH 13 15
ENDBRANCH 10 13
ENDBRANCH 7 9
ENDBRANCH 4 7
ENDBRANCH 1 3
BRANCH 1 22
ATOM     22  C   ALA E  11      -1.228  19.940   2.156  1.00 81.78 LIG 0.24  C 
ATOM     23  N   ALA E  12      -1.640  21.178   1.889  1.00 82.91 LIG-0.35  N 
ATOM     24 H    ALA E  12      -1.118  21.852   1.767  1.00 82.91 LIG 0.16  HD
ATOM     25 O    ALA E  11      -2.009  18.981   2.172  1.00 89.30 LIG-0.27  OA
BRANCH 23 26
ATOM     26  CA  ALA E  12      -3.062  21.471   1.782  1.00 61.10 LIG 0.17  C 
ATOM     27  CB  ALA E  12      -3.288  22.935   1.372  1.00 65.27 LIG 0.04  C 
BRANCH 26 28
ATOM     28  C   ALA E  12      -3.727  20.533   0.788  1.00 54.59 LIG 0.24  C 
ATOM     29  N   ALA E  13      -5.028  20.330   0.994  1.00 64.78 LIG-0.35  N 
ATOM     30 H    ALA E  13      -5.486  20.740   1.597  1.00 64.78 LIG 0.16  HD
ATOM     31 O    ALA E  12      -3.097  20.040  -0.152  1.00 69.11 LIG-0.27  OA
BRANCH 29 32
ATOM     32  CA  ALA E  13      -5.796  19.382   0.203  1.00 54.23 LIG 0.17  C 
ATOM     33  CB  ALA E  13      -7.278  19.479   0.568  1.00 56.27 LIG 0.04  C 
BRANCH 32 34
ATOM     34  C   ALA E  13      -5.655  19.624  -1.289  1.00 65.29 LIG 0.24  C 
ATOM     35  N   ALA E  14      -5.889  18.568  -2.059  1.00 85.74 LIG-0.35  N 
ATOM     36 H    ALA E  14      -6.072  17.787  -1.750  1.00 85.74 LIG 0.16  HD
ATOM     37 O    ALA E  13      -5.400  20.745  -1.736  1.00 75.52 LIG-0.27  OA
BRANCH 35 38
ATOM     38  CA  ALA E  14      -5.857  18.636  -3.509  1.00 94.46 LIG 0.16  C 
ATOM     39  CB  ALA E  14      -5.555  17.272  -4.087  1.00106.12 LIG 0.04  C 
BRANCH 38 40
ATOM     40  C   ALA E  14      -7.185  19.161  -4.044  1.00 99.07 LIG 0.22  C 
ATOM     41 O    ALA E  14      -8.154  19.302  -3.298  1.00120.33 LIG-0.29  OA
ENDBRANCH 38 40
ENDBRANCH 35 38
ENDBRANCH 32 34
ENDBRANCH 29 32
ENDBRANCH 26 28
ENDBRANCH 23 26
ENDBRANCH 1 22
TORSDOF 13
ENDMDL
MODEL 111
USER: ADFR SOLUTION from run 108
USER: SCORE 3.534917 LL:  -2.531 LR:  -3.923 RR:   0.000 FEB:  -0.045
USER: RMSD 4.458335
USER: SEED 107
USER: STATUS searching
USER: GENES 15
USER: genes 0 Translation |==|  0.58041 0.31042 0.62863
USER: genes 1 Rotation |==|  0.43999 0.35302 0.50114 0.97413
USER: genes 2 Torsion [CB]-CA--N-[C] |==|  0.43370
USER: genes 3 Torsion [N]-C--CA-[N] |==|  0.18989
USER: genes 4 Torsion [C]-CA--N-[C] |==|  0.61112
USER: genes 5 Torsion [N]-C--CA-[N] |==|  0.22949
USER: genes 6 Torsion [C]-CA--N-[C] |==|  0.78631
USER: genes 7 Torsion [N]-C--CA-[N] |==|  0.25108
USER: genes 8 Torsion [N]-CA--C-[N] |==|  0.78956
USER: genes 9 Torsion [C]-N--CA-[CB] |==|  0.17142
USER: genes 10 Torsion [N]-CA--C-[N] |==|  0.10163
USER: genes 11 Torsion [C]-N--CA-[CB] |==|  0.52233
USER: genes 12 Torsion [N]-CA--C-[N] |==|  0.41763
USER: genes 13 Torsion [C]-N--CA-[C] |==|  0.60938
USER: genes 14 Torsion [N]-CA--C-[O] |==|  0.96579
ROOT
ATOM      1  CA  ALA E  11       0.589  20.217   3.509  1.00 85.35 LIG 0.17  C 
ATOM      2  CB  ALA E  11      -0.748  20.893   3.817  1.00 80.46 LIG 0.04  C 
ENDROOT
BRANCH 1 3
ATOM      3  N   ALA E  11       1.659  21.208   3.482  1.00 87.15 LIG-0.35  N 
ATOM      4  C   ALA E  10       2.924  20.844   3.707  1.00 62.15 LIG 0.24  C 
ATOM      5 O    ALA E  10       3.273  19.663   3.742  1.00 65.72 LIG-0.27  OA
ATOM      6 H    ALA E  11       1.405  22.013   3.315  1.00 87.15 LIG 0.16  HD
BRANCH 4 7
ATOM      7  CA  ALA E  10       3.949  21.952   3.921  1.00 66.45 LIG 0.17  C 
ATOM      8  CB  ALA E  10       5.365  21.379   3.892  1.00 58.63 LIG 0.04  C 
BRANCH 7 9
ATOM      9  N   ALA E  10       3.730  22.662   5.173  1.00 75.43 LIG-0.35  N 
ATOM     10  C   ALA E   9       3.861  23.981   5.291  1.00 82.21 LIG 0.24  C 
ATOM     11 O    ALA E   9       4.212  24.717   4.362  1.00 73.75 LIG-0.27  OA
ATOM     12 H    ALA E  10       3.508  22.150   5.827  1.00 75.43 LIG 0.16  HD
BRANCH 10 13
ATOM     13  CA  ALA E   9       3.581  24.561   6.671  1.00 87.65 LIG 0.17  C 
ATOM     14  CB  ALA E   9       3.158  26.025   6.575  1.00 72.21 LIG 0.04  C 
BRANCH 13 15
ATOM     15  N   ALA E   9       4.786  24.405   7.475  1.00 84.24 LIG-0.35  N 
ATOM     16 H    ALA E   9       5.242  25.129   7.570  1.00 84.24 LIG 0.16  HD
ATOM     17  C   ALA E   8       5.137  23.243   8.009  1.00 61.40 LIG 0.26  C 
ATOM     18 O    ALA E   8       4.428  22.241   7.944  1.00 66.21 LIG-0.27  OA
BRANCH 17 19
ATOM     19  CA  ALA E   8       6.471  23.214   8.748  1.00 67.03 LIG 0.40  C 
ATOM     20  N   ALA E   8       6.280  23.544  10.193  1.00 60.26 LIG 0.61  N 
ATOM     21  CB  ALA E   8       7.140  21.853   8.598  1.00 64.64 LIG 0.06  C 
ENDBRANCH 17 19
ENDBRANCH 13 15
ENDBRANCH 10 13
ENDBRANCH 7 9
ENDBRANCH 4 7
ENDBRANCH 1 3
BRANCH 1 22
ATOM     22  C   ALA E  11       0.503  19.452   2.194  1.00 81.78 LIG 0.24  C 
ATOM     23  N   ALA E  12      -0.043  20.079   1.153  1.00 82.91 LIG-0.35  N 
ATOM     24 H    ALA E  12      -0.248  20.914   1.137  1.00 82.91 LIG 0.16  HD
ATOM     25 O    ALA E  11       0.917  18.289   2.114  1.00 89.30 LIG-0.27  OA
BRANCH 23 26
ATOM     26  CA  ALA E  12      -0.334  19.348  -0.072  1.00 61.10 LIG 0.17  C 
ATOM     27  CB  ALA E  12      -1.353  18.229   0.190  1.00 65.27 LIG 0.04  C 
BRANCH 26 28
ATOM     28  C   ALA E  12      -0.847  20.292  -1.148  1.00 54.59 LIG 0.24  C 
ATOM     29  N   ALA E  13      -0.274  21.496  -1.153  1.00 64.78 LIG-0.35  N 
ATOM     30 H    ALA E  13       0.380  21.716  -0.640  1.00 64.78 LIG 0.16  HD
ATOM     31 O    ALA E  12      -1.700  19.935  -1.964  1.00 69.11 LIG-0.27  OA
BRANCH 29 32
ATOM     32  CA  ALA E  13      -0.716  22.556  -2.045  1.00 54.23 LIG 0.17  C 
ATOM     33  CB  ALA E  13       0.248  23.741  -1.965  1.00 56.27 LIG 0.04  C 
BRANCH 32 34
ATOM     34  C   ALA E  13      -0.795  22.101  -3.491  1.00 65.29 LIG 0.24  C 
ATOM     35  N   ALA E  14      -1.709  22.718  -4.230  1.00 85.74 LIG-0.35  N 
ATOM     36 H    ALA E  14      -2.251  23.308  -3.919  1.00 85.74 LIG 0.16  HD
ATOM     37 O    ALA E  13      -0.013  21.261  -3.943  1.00 75.52 LIG-0.27  OA
BRANCH 35 38
ATOM     38  CA  ALA E  14      -1.880  22.451  -5.647  1.00 94.46 LIG 0.16  C 
ATOM     39  CB  ALA E  14      -3.000  21.457  -5.858  1.00106.12 LIG 0.04  C 
BRANCH 38 40
ATOM     40  C   ALA E  14      -2.164  23.745  -6.400  1.00 99.07 LIG 0.22  C 
ATOM     41 O    ALA E  14      -2.444  24.779  -5.794  1.00120.33 LIG-0.29  OA
ENDBRANCH 38 40
ENDBRANCH 35 38
ENDBRANCH 32 34
ENDBRANCH 29 32
ENDBRANCH 26 28
ENDBRANCH 23 26
ENDBRANCH 1 22
TORSDOF 13
ENDMDL
MODEL 112
USER: ADFR SOLUTION from run 70
USER: SCORE 4.100253 LL:  -2.602 LR:  -3.917 RR:   0.000 FEB:  -0.039
USER: RMSD 5.403431
USER: SEED 69
USER: STATUS no improvement in best in 94 clusters for 5 generations
USER: GENES 15
USER: genes 0 Translation |==|  0.61038 0.32690 0.56959
USER: genes 1 Rotation |==|  0.60117 0.45806 0.45998 0.98621
USER: genes 2 Torsion [CB]-CA--N-[C] |==|  0.22698
USER: genes 3 Torsion [N]-C--CA-[N] |==|  0.27866
USER: genes 4 Torsion [C]-CA--N-[C] |==|  0.66820
USER: genes 5 Torsion [N]-C--CA-[N] |==|  0.17970
USER: genes 6 Torsion [C]-CA--N-[C] |==|  0.77304
USER: genes 7 Torsion [N]-C--CA-[N] |==|  0.24418
USER: genes 8 Torsion [N]-CA--C-[N] |==|  0.88519
USER: genes 9 Torsion [C]-N--CA-[CB] |==|  0.17246
USER: genes 10 Torsion [N]-CA--C-[N] |==|  0.10382
USER: genes 11 Torsion [C]-N--CA-[CB] |==|  0.49034
USER: genes 12 Torsion [N]-CA--C-[N] |==|  0.45815
USER: genes 13 Torsion [C]-N--CA-[C] |==|  0.77749
USER: genes 14 Torsion [N]-CA--C-[O] |==|  0.96974
ROOT
ATOM      1  CA  ALA E  11       1.264  20.513   2.447  1.00 85.35 LIG 0.17  C 
ATOM      2  CB  ALA E  11       0.240  20.696   3.569  1.00 80.46 LIG 0.04  C 
ENDROOT
BRANCH 1 3
ATOM      3  N   ALA E  11       2.386  21.425   2.637  1.00 87.15 LIG-0.35  N 
ATOM      4  C   ALA E  10       3.372  21.116   3.483  1.00 62.15 LIG 0.24  C 
ATOM      5 O    ALA E  10       3.491  19.993   3.974  1.00 65.72 LIG-0.27  OA
ATOM      6 H    ALA E  11       2.350  22.148   2.172  1.00 87.15 LIG 0.16  HD
BRANCH 4 7
ATOM      7  CA  ALA E  10       4.372  22.213   3.830  1.00 66.45 LIG 0.17  C 
ATOM      8  CB  ALA E  10       5.795  21.656   3.824  1.00 58.63 LIG 0.04  C 
BRANCH 7 9
ATOM      9  N   ALA E  10       4.087  22.821   5.121  1.00 75.43 LIG-0.35  N 
ATOM     10  C   ALA E   9       3.807  24.115   5.267  1.00 82.21 LIG 0.24  C 
ATOM     11 O    ALA E   9       3.797  24.920   4.329  1.00 73.75 LIG-0.27  OA
ATOM     12 H    ALA E  10       4.116  22.268   5.779  1.00 75.43 LIG 0.16  HD
BRANCH 10 13
ATOM     13  CA  ALA E   9       3.519  24.580   6.688  1.00 87.65 LIG 0.17  C 
ATOM     14  CB  ALA E   9       3.044  26.031   6.704  1.00 72.21 LIG 0.04  C 
BRANCH 13 15
ATOM     15  N   ALA E   9       4.737  24.410   7.470  1.00 84.24 LIG-0.35  N 
ATOM     16 H    ALA E   9       5.201  25.129   7.560  1.00 84.24 LIG 0.16  HD
ATOM     17  C   ALA E   8       5.086  23.242   7.992  1.00 61.40 LIG 0.26  C 
ATOM     18 O    ALA E   8       4.366  22.248   7.935  1.00 66.21 LIG-0.27  OA
BRANCH 17 19
ATOM     19  CA  ALA E   8       6.433  23.197   8.708  1.00 67.03 LIG 0.40  C 
ATOM     20  N   ALA E   8       6.279  23.580  10.144  1.00 60.26 LIG 0.61  N 
ATOM     21  CB  ALA E   8       7.058  21.812   8.591  1.00 64.64 LIG 0.06  C 
ENDBRANCH 17 19
ENDBRANCH 13 15
ENDBRANCH 10 13
ENDBRANCH 7 9
ENDBRANCH 4 7
ENDBRANCH 1 3
BRANCH 1 22
ATOM     22  C   ALA E  11       0.601  20.718   1.090  1.00 81.78 LIG 0.24  C 
ATOM     23  N   ALA E  12       0.434  21.971   0.671  1.00 82.91 LIG-0.35  N 
ATOM     24 H    ALA E  12       0.768  22.665   1.054  1.00 82.91 LIG 0.16  HD
ATOM     25 O    ALA E  11       0.226  19.749   0.419  1.00 89.30 LIG-0.27  OA
BRANCH 23 26
ATOM     26  CA  ALA E  12      -0.363  22.247  -0.517  1.00 61.10 LIG 0.17  C 
ATOM     27  CB  ALA E  12      -1.817  21.794  -0.316  1.00 65.27 LIG 0.04  C 
BRANCH 26 28
ATOM     28  C   ALA E  12      -0.310  23.726  -0.864  1.00 54.59 LIG 0.24  C 
ATOM     29  N   ALA E  13       0.872  24.306  -0.657  1.00 64.78 LIG-0.35  N 
ATOM     30 H    ALA E  13       1.577  23.880  -0.411  1.00 64.78 LIG 0.16  HD
ATOM     31 O    ALA E  12      -1.289  24.312  -1.334  1.00 69.11 LIG-0.27  OA
BRANCH 29 32
ATOM     32  CA  ALA E  13       1.072  25.735  -0.836  1.00 54.23 LIG 0.17  C 
ATOM     33  CB  ALA E  13       2.500  26.116  -0.445  1.00 56.27 LIG 0.04  C 
BRANCH 32 34
ATOM     34  C   ALA E  13       0.835  26.179  -2.269  1.00 65.29 LIG 0.24  C 
ATOM     35  N   ALA E  14       0.692  27.488  -2.441  1.00 85.74 LIG-0.35  N 
ATOM     36 H    ALA E  14       0.694  28.054  -1.794  1.00 85.74 LIG 0.16  HD
ATOM     37 O    ALA E  13       0.841  25.370  -3.200  1.00 75.52 LIG-0.27  OA
BRANCH 35 38
ATOM     38  CA  ALA E  14       0.519  28.090  -3.751  1.00 94.46 LIG 0.16  C 
ATOM     39  CB  ALA E  14      -0.147  29.440  -3.619  1.00106.12 LIG 0.04  C 
BRANCH 38 40
ATOM     40  C   ALA E  14       1.865  28.223  -4.455  1.00 99.07 LIG 0.22  C 
ATOM     41 O    ALA E  14       2.917  28.034  -3.844  1.00120.33 LIG-0.29  OA
ENDBRANCH 38 40
ENDBRANCH 35 38
ENDBRANCH 32 34
ENDBRANCH 29 32
ENDBRANCH 26 28
ENDBRANCH 23 26
ENDBRANCH 1 22
TORSDOF 13
ENDMDL
MODEL 113
USER: ADFR SOLUTION from run 82
USER: SCORE 4.094473 LL:  -2.470 LR:  -3.911 RR:   0.000 FEB:  -0.033
USER: RMSD 3.498887
USER: SEED 81
USER: STATUS no improvement in best in 73 clusters for 5 generations
USER: GENES 15
USER: genes 0 Translation |==|  0.57749 0.26177 0.56349
USER: genes 1 Rotation |==|  0.73429 0.60291 0.58857 0.92033
USER: genes 2 Torsion [CB]-CA--N-[C] |==|  0.21540
USER: genes 3 Torsion [N]-C--CA-[N] |==|  0.49514
USER: genes 4 Torsion [C]-CA--N-[C] |==|  0.63638
USER: genes 5 Torsion [N]-C--CA-[N] |==|  0.16181
USER: genes 6 Torsion [C]-CA--N-[C] |==|  0.77501
USER: genes 7 Torsion [N]-C--CA-[N] |==|  0.53759
USER: genes 8 Torsion [N]-CA--C-[N] |==|  0.94870
USER: genes 9 Torsion [C]-N--CA-[CB] |==|  0.17804
USER: genes 10 Torsion [N]-CA--C-[N] |==|  0.55412
USER: genes 11 Torsion [C]-N--CA-[CB] |==|  0.84199
USER: genes 12 Torsion [N]-CA--C-[N] |==|  0.42222
USER: genes 13 Torsion [C]-N--CA-[C] |==|  0.17701
USER: genes 14 Torsion [N]-CA--C-[O] |==|  0.09623
ROOT
ATOM      1  CA  ALA E  11       0.524  19.341   2.337  1.00 85.35 LIG 0.17  C 
ATOM      2  CB  ALA E  11       0.304  18.337   3.470  1.00 80.46 LIG 0.04  C 
ENDROOT
BRANCH 1 3
ATOM      3  N   ALA E  11       1.017  20.604   2.874  1.00 87.15 LIG-0.35  N 
ATOM      4  C   ALA E  10       2.297  20.730   3.236  1.00 62.15 LIG 0.24  C 
ATOM      5 O    ALA E  10       3.148  19.886   2.951  1.00 65.72 LIG-0.27  OA
ATOM      6 H    ALA E  11       0.430  21.229   2.932  1.00 87.15 LIG 0.16  HD
BRANCH 4 7
ATOM      7  CA  ALA E  10       2.687  21.976   4.023  1.00 66.45 LIG 0.17  C 
ATOM      8  CB  ALA E  10       2.366  23.235   3.219  1.00 58.63 LIG 0.04  C 
BRANCH 7 9
ATOM      9  N   ALA E  10       4.096  21.971   4.388  1.00 75.43 LIG-0.35  N 
ATOM     10  C   ALA E   9       4.526  22.217   5.624  1.00 82.21 LIG 0.24  C 
ATOM     11 O    ALA E   9       3.774  22.504   6.562  1.00 73.75 LIG-0.27  OA
ATOM     12 H    ALA E  10       4.623  21.795   3.732  1.00 75.43 LIG 0.16  HD
BRANCH 10 13
ATOM     13  CA  ALA E   9       6.033  22.157   5.832  1.00 87.65 LIG 0.17  C 
ATOM     14  CB  ALA E   9       6.397  22.440   7.288  1.00 72.21 LIG 0.04  C 
BRANCH 13 15
ATOM     15  N   ALA E   9       6.648  23.123   4.931  1.00 84.24 LIG-0.35  N 
ATOM     16 H    ALA E   9       6.854  23.870   5.304  1.00 84.24 LIG 0.16  HD
ATOM     17  C   ALA E   8       6.866  22.859   3.650  1.00 61.40 LIG 0.26  C 
ATOM     18 O    ALA E   8       6.654  21.754   3.155  1.00 66.21 LIG-0.27  OA
BRANCH 17 19
ATOM     19  CA  ALA E   8       7.434  24.000   2.812  1.00 67.03 LIG 0.40  C 
ATOM     20  N   ALA E   8       7.326  23.687   1.355  1.00 60.26 LIG 0.61  N 
ATOM     21  CB  ALA E   8       6.718  25.308   3.129  1.00 64.64 LIG 0.06  C 
ENDBRANCH 17 19
ENDBRANCH 13 15
ENDBRANCH 10 13
ENDBRANCH 7 9
ENDBRANCH 4 7
ENDBRANCH 1 3
BRANCH 1 22
ATOM     22  C   ALA E  11      -0.765  19.536   1.548  1.00 81.78 LIG 0.24  C 
ATOM     23  N   ALA E  12      -1.450  20.659   1.756  1.00 82.91 LIG-0.35  N 
ATOM     24 H    ALA E  12      -1.166  21.328   2.217  1.00 82.91 LIG 0.16  HD
ATOM     25 O    ALA E  11      -1.155  18.670   0.755  1.00 89.30 LIG-0.27  OA
BRANCH 23 26
ATOM     26  CA  ALA E  12      -2.781  20.822   1.187  1.00 61.10 LIG 0.17  C 
ATOM     27  CB  ALA E  12      -3.758  19.798   1.784  1.00 65.27 LIG 0.04  C 
BRANCH 26 28
ATOM     28  C   ALA E  12      -3.289  22.237   1.417  1.00 54.59 LIG 0.24  C 
ATOM     29  N   ALA E  13      -4.610  22.380   1.311  1.00 64.78 LIG-0.35  N 
ATOM     30 H    ALA E  13      -5.153  21.725   1.188  1.00 64.78 LIG 0.16  HD
ATOM     31 O    ALA E  12      -2.521  23.155   1.715  1.00 69.11 LIG-0.27  OA
BRANCH 29 32
ATOM     32  CA  ALA E  13      -5.254  23.681   1.397  1.00 54.23 LIG 0.17  C 
ATOM     33  CB  ALA E  13      -4.895  24.355   2.721  1.00 56.27 LIG 0.04  C 
BRANCH 32 34
ATOM     34  C   ALA E  13      -4.845  24.605   0.264  1.00 65.29 LIG 0.24  C 
ATOM     35  N   ALA E  14      -5.748  25.518  -0.077  1.00 85.74 LIG-0.35  N 
ATOM     36 H    ALA E  14      -6.527  25.572   0.282  1.00 85.74 LIG 0.16  HD
ATOM     37 O    ALA E  13      -3.725  24.536  -0.248  1.00 75.52 LIG-0.27  OA
BRANCH 35 38
ATOM     38  CA  ALA E  14      -5.499  26.521  -1.097  1.00 94.46 LIG 0.16  C 
ATOM     39  CB  ALA E  14      -4.292  27.352  -0.727  1.00106.12 LIG 0.04  C 
BRANCH 38 40
ATOM     40  C   ALA E  14      -5.295  25.856  -2.454  1.00 99.07 LIG 0.22  C 
ATOM     41 O    ALA E  14      -5.916  24.837  -2.757  1.00120.33 LIG-0.29  OA
ENDBRANCH 38 40
ENDBRANCH 35 38
ENDBRANCH 32 34
ENDBRANCH 29 32
ENDBRANCH 26 28
ENDBRANCH 23 26
ENDBRANCH 1 22
TORSDOF 13
ENDMDL
MODEL 114
USER: ADFR SOLUTION from run 139
USER: SCORE 3.929575 LL:  -2.358 LR:  -3.912 RR:   0.000 FEB:  -0.034
USER: RMSD 3.515466
USER: SEED 138
USER: STATUS no improvement in best in 42 clusters for 5 generations
USER: GENES 15
USER: genes 0 Translation |==|  0.62186 0.36298 0.54854
USER: genes 1 Rotation |==|  0.65713 0.47523 0.43690 0.96980
USER: genes 2 Torsion [CB]-CA--N-[C] |==|  0.20439
USER: genes 3 Torsion [N]-C--CA-[N] |==|  0.25115
USER: genes 4 Torsion [C]-CA--N-[C] |==|  0.70068
USER: genes 5 Torsion [N]-C--CA-[N] |==|  0.14176
USER: genes 6 Torsion [C]-CA--N-[C] |==|  0.78610
USER: genes 7 Torsion [N]-C--CA-[N] |==|  0.75572
USER: genes 8 Torsion [N]-CA--C-[N] |==|  0.57796
USER: genes 9 Torsion [C]-N--CA-[CB] |==|  0.20529
USER: genes 10 Torsion [N]-CA--C-[N] |==|  0.56112
USER: genes 11 Torsion [C]-N--CA-[CB] |==|  0.84437
USER: genes 12 Torsion [N]-CA--C-[N] |==|  0.39439
USER: genes 13 Torsion [C]-N--CA-[C] |==|  0.76901
USER: genes 14 Torsion [N]-CA--C-[O] |==|  0.97351
ROOT
ATOM      1  CA  ALA E  11       1.522  21.163   2.068  1.00 85.35 LIG 0.17  C 
ATOM      2  CB  ALA E  11       0.575  21.122   3.269  1.00 80.46 LIG 0.04  C 
ENDROOT
BRANCH 1 3
ATOM      3  N   ALA E  11       2.713  21.939   2.394  1.00 87.15 LIG-0.35  N 
ATOM      4  C   ALA E  10       3.647  21.435   3.205  1.00 62.15 LIG 0.24  C 
ATOM      5 O    ALA E  10       3.655  20.251   3.544  1.00 65.72 LIG-0.27  OA
ATOM      6 H    ALA E  11       2.753  22.716   2.028  1.00 87.15 LIG 0.16  HD
BRANCH 4 7
ATOM      7  CA  ALA E  10       4.728  22.384   3.709  1.00 66.45 LIG 0.17  C 
ATOM      8  CB  ALA E  10       6.050  21.638   3.883  1.00 58.63 LIG 0.04  C 
BRANCH 7 9
ATOM      9  N   ALA E  10       4.354  23.020   4.963  1.00 75.43 LIG-0.35  N 
ATOM     10  C   ALA E   9       4.013  24.303   5.052  1.00 82.21 LIG 0.24  C 
ATOM     11 O    ALA E   9       4.017  25.078   4.088  1.00 73.75 LIG-0.27  OA
ATOM     12 H    ALA E  10       4.373  22.489   5.640  1.00 75.43 LIG 0.16  HD
BRANCH 10 13
ATOM     13  CA  ALA E   9       3.636  24.801   6.441  1.00 87.65 LIG 0.17  C 
ATOM     14  CB  ALA E   9       3.424  26.314   6.442  1.00 72.21 LIG 0.04  C 
BRANCH 13 15
ATOM     15  N   ALA E   9       4.697  24.411   7.360  1.00 84.24 LIG-0.35  N 
ATOM     16 H    ALA E   9       5.228  25.052   7.577  1.00 84.24 LIG 0.16  HD
ATOM     17  C   ALA E   8       4.820  23.171   7.814  1.00 61.40 LIG 0.26  C 
ATOM     18 O    ALA E   8       4.000  22.289   7.569  1.00 66.21 LIG-0.27  OA
BRANCH 17 19
ATOM     19  CA  ALA E   8       6.033  22.892   8.697  1.00 67.03 LIG 0.40  C 
ATOM     20  N   ALA E   8       7.212  22.504   7.866  1.00 60.26 LIG 0.61  N 
ATOM     21  CB  ALA E   8       6.365  24.108   9.555  1.00 64.64 LIG 0.06  C 
ENDBRANCH 17 19
ENDBRANCH 13 15
ENDBRANCH 10 13
ENDBRANCH 7 9
ENDBRANCH 4 7
ENDBRANCH 1 3
BRANCH 1 22
ATOM     22  C   ALA E  11       0.803  21.728   0.849  1.00 81.78 LIG 0.24  C 
ATOM     23  N   ALA E  12      -0.512  21.535   0.767  1.00 82.91 LIG-0.35  N 
ATOM     24 H    ALA E  12      -1.001  21.215   1.398  1.00 82.91 LIG 0.16  HD
ATOM     25 O    ALA E  11       1.432  22.331  -0.029  1.00 89.30 LIG-0.27  OA
BRANCH 23 26
ATOM     26  CA  ALA E  12      -1.228  21.875  -0.456  1.00 61.10 LIG 0.17  C 
ATOM     27  CB  ALA E  12      -0.937  20.848  -1.560  1.00 65.27 LIG 0.04  C 
BRANCH 26 28
ATOM     28  C   ALA E  12      -2.722  21.963  -0.192  1.00 54.59 LIG 0.24  C 
ATOM     29  N   ALA E  13      -3.490  21.809  -1.271  1.00 64.78 LIG-0.35  N 
ATOM     30 H    ALA E  13      -3.185  21.611  -2.050  1.00 64.78 LIG 0.16  HD
ATOM     31 O    ALA E  12      -3.166  22.125   0.948  1.00 69.11 LIG-0.27  OA
BRANCH 29 32
ATOM     32  CA  ALA E  13      -4.934  21.967  -1.219  1.00 54.23 LIG 0.17  C 
ATOM     33  CB  ALA E  13      -5.525  21.028  -0.166  1.00 56.27 LIG 0.04  C 
BRANCH 32 34
ATOM     34  C   ALA E  13      -5.350  23.387  -0.878  1.00 65.29 LIG 0.24  C 
ATOM     35  N   ALA E  14      -6.423  23.833  -1.522  1.00 85.74 LIG-0.35  N 
ATOM     36 H    ALA E  14      -6.841  23.378  -2.119  1.00 85.74 LIG 0.16  HD
ATOM     37 O    ALA E  13      -4.757  24.040  -0.016  1.00 75.52 LIG-0.27  OA
BRANCH 35 38
ATOM     38  CA  ALA E  14      -6.993  25.145  -1.274  1.00 94.46 LIG 0.16  C 
ATOM     39  CB  ALA E  14      -7.745  25.624  -2.494  1.00106.12 LIG 0.04  C 
BRANCH 38 40
ATOM     40  C   ALA E  14      -7.915  25.101  -0.060  1.00 99.07 LIG 0.22  C 
ATOM     41 O    ALA E  14      -8.228  24.028   0.455  1.00120.33 LIG-0.29  OA
ENDBRANCH 38 40
ENDBRANCH 35 38
ENDBRANCH 32 34
ENDBRANCH 29 32
ENDBRANCH 26 28
ENDBRANCH 23 26
ENDBRANCH 1 22
TORSDOF 13
ENDMDL
MODEL 115
USER: ADFR SOLUTION from run 72
USER: SCORE 5.332409 LL:  -3.069 LR:  -3.909 RR:   0.000 FEB:  -0.031
USER: RMSD 5.162544
USER: SEED 71
USER: STATUS no improvement in best in 55 clusters for 5 generations
USER: GENES 15
USER: genes 0 Translation |==|  0.63816 0.35079 0.57854
USER: genes 1 Rotation |==|  0.75210 0.54080 0.52499 0.92914
USER: genes 2 Torsion [CB]-CA--N-[C] |==|  0.15371
USER: genes 3 Torsion [N]-C--CA-[N] |==|  0.17795
USER: genes 4 Torsion [C]-CA--N-[C] |==|  0.79135
USER: genes 5 Torsion [N]-C--CA-[N] |==|  0.33432
USER: genes 6 Torsion [C]-CA--N-[C] |==|  0.85472
USER: genes 7 Torsion [N]-C--CA-[N] |==|  0.25091
USER: genes 8 Torsion [N]-CA--C-[N] |==|  0.05296
USER: genes 9 Torsion [C]-N--CA-[CB] |==|  0.84441
USER: genes 10 Torsion [N]-CA--C-[N] |==|  0.80556
USER: genes 11 Torsion [C]-N--CA-[CB] |==|  0.18889
USER: genes 12 Torsion [N]-CA--C-[N] |==|  0.09215
USER: genes 13 Torsion [C]-N--CA-[C] |==|  0.72831
USER: genes 14 Torsion [N]-CA--C-[O] |==|  0.01489
ROOT
ATOM      1  CA  ALA E  11       1.889  20.943   2.608  1.00 85.35 LIG 0.17  C 
ATOM      2  CB  ALA E  11       1.237  20.055   3.670  1.00 80.46 LIG 0.04  C 
ENDROOT
BRANCH 1 3
ATOM      3  N   ALA E  11       2.737  21.946   3.243  1.00 87.15 LIG-0.35  N 
ATOM      4  C   ALA E  10       3.708  21.576   4.081  1.00 62.15 LIG 0.24  C 
ATOM      5 O    ALA E  10       4.065  20.403   4.199  1.00 65.72 LIG-0.27  OA
ATOM      6 H    ALA E  11       2.557  22.760   3.034  1.00 87.15 LIG 0.16  HD
BRANCH 4 7
ATOM      7  CA  ALA E  10       4.382  22.668   4.905  1.00 66.45 LIG 0.17  C 
ATOM      8  CB  ALA E  10       5.569  22.094   5.678  1.00 58.63 LIG 0.04  C 
BRANCH 7 9
ATOM      9  N   ALA E  10       3.454  23.304   5.827  1.00 75.43 LIG-0.35  N 
ATOM     10  C   ALA E   9       2.528  24.177   5.438  1.00 82.21 LIG 0.24  C 
ATOM     11 O    ALA E   9       2.393  24.551   4.267  1.00 73.75 LIG-0.27  OA
ATOM     12 H    ALA E  10       3.561  23.065   6.647  1.00 75.43 LIG 0.16  HD
BRANCH 10 13
ATOM     13  CA  ALA E   9       1.632  24.736   6.534  1.00 87.65 LIG 0.17  C 
ATOM     14  CB  ALA E   9       0.173  24.346   6.303  1.00 72.21 LIG 0.04  C 
BRANCH 13 15
ATOM     15  N   ALA E   9       1.799  26.184   6.555  1.00 84.24 LIG-0.35  N 
ATOM     16 H    ALA E   9       1.061  26.624   6.512  1.00 84.24 LIG 0.16  HD
ATOM     17  C   ALA E   8       2.991  26.758   6.634  1.00 61.40 LIG 0.26  C 
ATOM     18 O    ALA E   8       4.028  26.117   6.789  1.00 66.21 LIG-0.27  OA
BRANCH 17 19
ATOM     19  CA  ALA E   8       3.015  28.281   6.553  1.00 67.03 LIG 0.40  C 
ATOM     20  N   ALA E   8       2.903  28.883   7.916  1.00 60.26 LIG 0.61  N 
ATOM     21  CB  ALA E   8       4.286  28.764   5.862  1.00 64.64 LIG 0.06  C 
ENDBRANCH 17 19
ENDBRANCH 13 15
ENDBRANCH 10 13
ENDBRANCH 7 9
ENDBRANCH 4 7
ENDBRANCH 1 3
BRANCH 1 22
ATOM     22  C   ALA E  11       0.821  21.588   1.733  1.00 81.78 LIG 0.24  C 
ATOM     23  N   ALA E  12       1.020  22.848   1.348  1.00 82.91 LIG-0.35  N 
ATOM     24 H    ALA E  12       1.752  23.285   1.463  1.00 82.91 LIG 0.16  HD
ATOM     25 O    ALA E  11      -0.193  20.959   1.410  1.00 89.30 LIG-0.27  OA
BRANCH 23 26
ATOM     26  CA  ALA E  12      -0.042  23.586   0.679  1.00 61.10 LIG 0.17  C 
ATOM     27  CB  ALA E  12      -0.523  22.836  -0.573  1.00 65.27 LIG 0.04  C 
BRANCH 26 28
ATOM     28  C   ALA E  12      -1.202  23.831   1.630  1.00 54.59 LIG 0.24  C 
ATOM     29  N   ALA E  13      -1.900  22.741   1.952  1.00 64.78 LIG-0.35  N 
ATOM     30 H    ALA E  13      -1.686  21.946   1.703  1.00 64.78 LIG 0.16  HD
ATOM     31 O    ALA E  12      -1.436  24.954   2.085  1.00 69.11 LIG-0.27  OA
BRANCH 29 32
ATOM     32  CA  ALA E  13      -3.103  22.808   2.766  1.00 54.23 LIG 0.17  C 
ATOM     33  CB  ALA E  13      -4.218  23.513   1.994  1.00 56.27 LIG 0.04  C 
BRANCH 32 34
ATOM     34  C   ALA E  13      -3.601  21.434   3.177  1.00 65.29 LIG 0.24  C 
ATOM     35  N   ALA E  14      -2.654  20.524   3.376  1.00 85.74 LIG-0.35  N 
ATOM     36 H    ALA E  14      -1.817  20.675   3.250  1.00 85.74 LIG 0.16  HD
ATOM     37 O    ALA E  13      -4.800  21.216   3.367  1.00 75.52 LIG-0.27  OA
BRANCH 35 38
ATOM     38  CA  ALA E  14      -2.948  19.176   3.830  1.00 94.46 LIG 0.16  C 
ATOM     39  CB  ALA E  14      -2.077  18.180   3.101  1.00106.12 LIG 0.04  C 
BRANCH 38 40
ATOM     40  C   ALA E  14      -2.740  19.068   5.337  1.00 99.07 LIG 0.22  C 
ATOM     41 O    ALA E  14      -2.467  20.063   6.009  1.00120.33 LIG-0.29  OA
ENDBRANCH 38 40
ENDBRANCH 35 38
ENDBRANCH 32 34
ENDBRANCH 29 32
ENDBRANCH 26 28
ENDBRANCH 23 26
ENDBRANCH 1 22
TORSDOF 13
ENDMDL
MODEL 116
USER: ADFR SOLUTION from run 162
USER: SCORE 4.088580 LL:  -2.721 LR:  -3.901 RR:   0.000 FEB:  -0.023
USER: RMSD 3.837262
USER: SEED 161
USER: STATUS no improvement in best in 72 clusters for 5 generations
USER: GENES 15
USER: genes 0 Translation |==|  0.63992 0.32751 0.61481
USER: genes 1 Rotation |==|  0.81705 0.72836 0.58093 0.80130
USER: genes 2 Torsion [CB]-CA--N-[C] |==|  0.13555
USER: genes 3 Torsion [N]-C--CA-[N] |==|  0.04680
USER: genes 4 Torsion [C]-CA--N-[C] |==|  0.77127
USER: genes 5 Torsion [N]-C--CA-[N] |==|  0.36499
USER: genes 6 Torsion [C]-CA--N-[C] |==|  0.86823
USER: genes 7 Torsion [N]-C--CA-[N] |==|  0.27610
USER: genes 8 Torsion [N]-CA--C-[N] |==|  0.13472
USER: genes 9 Torsion [C]-N--CA-[CB] |==|  0.17455
USER: genes 10 Torsion [N]-CA--C-[N] |==|  0.37964
USER: genes 11 Torsion [C]-N--CA-[CB] |==|  0.17652
USER: genes 12 Torsion [N]-CA--C-[N] |==|  0.09538
USER: genes 13 Torsion [C]-N--CA-[C] |==|  0.76686
USER: genes 14 Torsion [N]-CA--C-[O] |==|  0.97610
ROOT
ATOM      1  CA  ALA E  11       1.928  20.524   3.261  1.00 85.35 LIG 0.17  C 
ATOM      2  CB  ALA E  11       2.516  19.205   3.767  1.00 80.46 LIG 0.04  C 
ENDROOT
BRANCH 1 3
ATOM      3  N   ALA E  11       2.531  21.647   3.970  1.00 87.15 LIG-0.35  N 
ATOM      4  C   ALA E  10       3.857  21.731   4.100  1.00 62.15 LIG 0.24  C 
ATOM      5 O    ALA E  10       4.628  21.004   3.472  1.00 65.72 LIG-0.27  OA
ATOM      6 H    ALA E  11       1.973  22.223   4.282  1.00 87.15 LIG 0.16  HD
BRANCH 4 7
ATOM      7  CA  ALA E  10       4.406  22.777   5.065  1.00 66.45 LIG 0.17  C 
ATOM      8  CB  ALA E  10       5.584  22.207   5.853  1.00 58.63 LIG 0.04  C 
BRANCH 7 9
ATOM      9  N   ALA E  10       3.385  23.259   5.983  1.00 75.43 LIG-0.35  N 
ATOM     10  C   ALA E   9       2.510  24.208   5.662  1.00 82.21 LIG 0.24  C 
ATOM     11 O    ALA E   9       2.505  24.789   4.570  1.00 73.75 LIG-0.27  OA
ATOM     12 H    ALA E  10       3.400  22.873   6.752  1.00 75.43 LIG 0.16  HD
BRANCH 10 13
ATOM     13  CA  ALA E   9       1.501  24.582   6.740  1.00 87.65 LIG 0.17  C 
ATOM     14  CB  ALA E   9       0.116  24.031   6.409  1.00 72.21 LIG 0.04  C 
BRANCH 13 15
ATOM     15  N   ALA E   9       1.484  26.035   6.853  1.00 84.24 LIG-0.35  N 
ATOM     16 H    ALA E   9       0.694  26.377   6.862  1.00 84.24 LIG 0.16  HD
ATOM     17  C   ALA E   8       2.595  26.752   6.933  1.00 61.40 LIG 0.26  C 
ATOM     18 O    ALA E   8       3.711  26.242   7.013  1.00 66.21 LIG-0.27  OA
BRANCH 17 19
ATOM     19  CA  ALA E   8       2.422  28.268   6.955  1.00 67.03 LIG 0.40  C 
ATOM     20  N   ALA E   8       2.508  28.788   8.353  1.00 60.26 LIG 0.61  N 
ATOM     21  CB  ALA E   8       3.467  28.941   6.073  1.00 64.64 LIG 0.06  C 
ENDBRANCH 17 19
ENDBRANCH 13 15
ENDBRANCH 10 13
ENDBRANCH 7 9
ENDBRANCH 4 7
ENDBRANCH 1 3
BRANCH 1 22
ATOM     22  C   ALA E  11       0.412  20.518   3.410  1.00 81.78 LIG 0.24  C 
ATOM     23  N   ALA E  12      -0.233  21.661   3.183  1.00 82.91 LIG-0.35  N 
ATOM     24 H    ALA E  12       0.127  22.369   2.854  1.00 82.91 LIG 0.16  HD
ATOM     25 O    ALA E  11      -0.183  19.486   3.743  1.00 89.30 LIG-0.27  OA
BRANCH 23 26
ATOM     26  CA  ALA E  12      -1.651  21.777   3.496  1.00 61.10 LIG 0.17  C 
ATOM     27  CB  ALA E  12      -1.893  21.598   5.002  1.00 65.27 LIG 0.04  C 
BRANCH 26 28
ATOM     28  C   ALA E  12      -2.193  23.117   3.026  1.00 54.59 LIG 0.24  C 
ATOM     29  N   ALA E  13      -3.379  23.059   2.421  1.00 64.78 LIG-0.35  N 
ATOM     30 H    ALA E  13      -3.845  22.339   2.351  1.00 64.78 LIG 0.16  HD
ATOM     31 O    ALA E  12      -1.580  24.168   3.235  1.00 69.11 LIG-0.27  OA
BRANCH 29 32
ATOM     32  CA  ALA E  13      -3.996  24.229   1.817  1.00 54.23 LIG 0.17  C 
ATOM     33  CB  ALA E  13      -3.132  24.737   0.662  1.00 56.27 LIG 0.04  C 
BRANCH 32 34
ATOM     34  C   ALA E  13      -5.387  23.941   1.283  1.00 65.29 LIG 0.24  C 
ATOM     35  N   ALA E  14      -6.092  23.061   1.985  1.00 85.74 LIG-0.35  N 
ATOM     36 H    ALA E  14      -5.785  22.647   2.673  1.00 85.74 LIG 0.16  HD
ATOM     37 O    ALA E  13      -5.834  24.539   0.302  1.00 75.52 LIG-0.27  OA
BRANCH 35 38
ATOM     38  CA  ALA E  14      -7.462  22.713   1.652  1.00 94.46 LIG 0.16  C 
ATOM     39  CB  ALA E  14      -7.780  21.320   2.147  1.00106.12 LIG 0.04  C 
BRANCH 38 40
ATOM     40  C   ALA E  14      -8.428  23.728   2.253  1.00 99.07 LIG 0.22  C 
ATOM     41 O    ALA E  14      -8.030  24.585   3.042  1.00120.33 LIG-0.29  OA
ENDBRANCH 38 40
ENDBRANCH 35 38
ENDBRANCH 32 34
ENDBRANCH 29 32
ENDBRANCH 26 28
ENDBRANCH 23 26
ENDBRANCH 1 22
TORSDOF 13
ENDMDL
MODEL 117
USER: ADFR SOLUTION from run 36
USER: SCORE 4.446530 LL:  -2.227 LR:  -3.896 RR:   0.000 FEB:  -0.018
USER: RMSD 4.248722
USER: SEED 35
USER: STATUS no improvement in best in 56 clusters for 5 generations
USER: GENES 15
USER: genes 0 Translation |==|  0.52891 0.40072 0.60820
USER: genes 1 Rotation |==|  0.75773 0.60584 0.52252 0.91457
USER: genes 2 Torsion [CB]-CA--N-[C] |==|  0.21126
USER: genes 3 Torsion [N]-C--CA-[N] |==|  0.50981
USER: genes 4 Torsion [C]-CA--N-[C] |==|  0.77524
USER: genes 5 Torsion [N]-C--CA-[N] |==|  0.39642
USER: genes 6 Torsion [C]-CA--N-[C] |==|  0.87775
USER: genes 7 Torsion [N]-C--CA-[N] |==|  0.11059
USER: genes 8 Torsion [N]-CA--C-[N] |==|  0.04541
USER: genes 9 Torsion [C]-N--CA-[CB] |==|  0.48889
USER: genes 10 Torsion [N]-CA--C-[N] |==|  0.46426
USER: genes 11 Torsion [C]-N--CA-[CB] |==|  0.52222
USER: genes 12 Torsion [N]-CA--C-[N] |==|  0.42820
USER: genes 13 Torsion [C]-N--CA-[C] |==|  0.17207
USER: genes 14 Torsion [N]-CA--C-[O] |==|  0.09094
ROOT
ATOM      1  CA  ALA E  11      -0.569  21.842   3.142  1.00 85.35 LIG 0.17  C 
ATOM      2  CB  ALA E  11      -0.844  20.857   4.280  1.00 80.46 LIG 0.04  C 
ENDROOT
BRANCH 1 3
ATOM      3  N   ALA E  11       0.279  22.931   3.614  1.00 87.15 LIG-0.35  N 
ATOM      4  C   ALA E  10       1.587  22.736   3.799  1.00 62.15 LIG 0.24  C 
ATOM      5 O    ALA E  10       2.166  21.726   3.398  1.00 65.72 LIG-0.27  OA
ATOM      6 H    ALA E  11      -0.129  23.675   3.753  1.00 87.15 LIG 0.16  HD
BRANCH 4 7
ATOM      7  CA  ALA E  10       2.364  23.824   4.533  1.00 66.45 LIG 0.17  C 
ATOM      8  CB  ALA E  10       2.146  25.178   3.859  1.00 58.63 LIG 0.04  C 
BRANCH 7 9
ATOM      9  N   ALA E  10       3.787  23.529   4.595  1.00 75.43 LIG-0.35  N 
ATOM     10  C   ALA E   9       4.316  22.698   5.491  1.00 82.21 LIG 0.24  C 
ATOM     11 O    ALA E   9       3.656  22.131   6.368  1.00 73.75 LIG-0.27  OA
ATOM     12 H    ALA E  10       4.254  23.940   4.001  1.00 75.43 LIG 0.16  HD
BRANCH 10 13
ATOM     13  CA  ALA E   9       5.823  22.493   5.405  1.00 87.65 LIG 0.17  C 
ATOM     14  CB  ALA E   9       6.161  21.255   4.577  1.00 72.21 LIG 0.04  C 
BRANCH 13 15
ATOM     15  N   ALA E   9       6.338  22.382   6.764  1.00 84.24 LIG-0.35  N 
ATOM     16 H    ALA E   9       6.910  21.749   6.873  1.00 84.24 LIG 0.16  HD
ATOM     17  C   ALA E   8       5.949  23.194   7.737  1.00 61.40 LIG 0.26  C 
ATOM     18 O    ALA E   8       5.203  24.152   7.545  1.00 66.21 LIG-0.27  OA
BRANCH 17 19
ATOM     19  CA  ALA E   8       6.506  22.899   9.127  1.00 67.03 LIG 0.40  C 
ATOM     20  N   ALA E   8       7.942  22.496   9.044  1.00 60.26 LIG 0.61  N 
ATOM     21  CB  ALA E   8       6.346  24.111  10.038  1.00 64.64 LIG 0.06  C 
ENDBRANCH 17 19
ENDBRANCH 13 15
ENDBRANCH 10 13
ENDBRANCH 7 9
ENDBRANCH 4 7
ENDBRANCH 1 3
BRANCH 1 22
ATOM     22  C   ALA E  11      -1.881  22.364   2.568  1.00 81.78 LIG 0.24  C 
ATOM     23  N   ALA E  12      -1.946  23.659   2.262  1.00 82.91 LIG-0.35  N 
ATOM     24 H    ALA E  12      -1.274  24.196   2.259  1.00 82.91 LIG 0.16  HD
ATOM     25 O    ALA E  11      -2.845  21.606   2.410  1.00 89.30 LIG-0.27  OA
BRANCH 23 26
ATOM     26  CA  ALA E  12      -3.220  24.262   1.896  1.00 61.10 LIG 0.17  C 
ATOM     27  CB  ALA E  12      -3.065  25.776   1.684  1.00 65.27 LIG 0.04  C 
BRANCH 26 28
ATOM     28  C   ALA E  12      -3.782  23.605   0.646  1.00 54.59 LIG 0.24  C 
ATOM     29  N   ALA E  13      -5.057  23.896   0.386  1.00 64.78 LIG-0.35  N 
ATOM     30 H    ALA E  13      -5.520  24.460   0.841  1.00 64.78 LIG 0.16  HD
ATOM     31 O    ALA E  12      -3.080  22.893  -0.077  1.00 69.11 LIG-0.27  OA
BRANCH 29 32
ATOM     32  CA  ALA E  13      -5.783  23.274  -0.709  1.00 54.23 LIG 0.17  C 
ATOM     33  CB  ALA E  13      -7.145  23.946  -0.881  1.00 56.27 LIG 0.04  C 
BRANCH 32 34
ATOM     34  C   ALA E  13      -5.034  23.368  -2.027  1.00 65.29 LIG 0.24  C 
ATOM     35  N   ALA E  14      -5.322  22.419  -2.911  1.00 85.74 LIG-0.35  N 
ATOM     36 H    ALA E  14      -5.862  21.770  -2.751  1.00 85.74 LIG 0.16  HD
ATOM     37 O    ALA E  13      -4.265  24.303  -2.263  1.00 75.52 LIG-0.27  OA
BRANCH 35 38
ATOM     38  CA  ALA E  14      -4.745  22.391  -4.243  1.00 94.46 LIG 0.16  C 
ATOM     39  CB  ALA E  14      -5.120  23.645  -4.999  1.00106.12 LIG 0.04  C 
BRANCH 38 40
ATOM     40  C   ALA E  14      -3.229  22.249  -4.161  1.00 99.07 LIG 0.22  C 
ATOM     41 O    ALA E  14      -2.704  21.609  -3.250  1.00120.33 LIG-0.29  OA
ENDBRANCH 38 40
ENDBRANCH 35 38
ENDBRANCH 32 34
ENDBRANCH 29 32
ENDBRANCH 26 28
ENDBRANCH 23 26
ENDBRANCH 1 22
TORSDOF 13
ENDMDL
MODEL 118
USER: ADFR SOLUTION from run 148
USER: SCORE 5.369251 LL:  -2.312 LR:  -3.888 RR:   0.000 FEB:  -0.010
USER: RMSD 5.068402
USER: SEED 147
USER: STATUS searching
USER: GENES 15
USER: genes 0 Translation |==|  0.65613 0.27799 0.57512
USER: genes 1 Rotation |==|  0.67413 0.44300 0.60469 0.95329
USER: genes 2 Torsion [CB]-CA--N-[C] |==|  0.85142
USER: genes 3 Torsion [N]-C--CA-[N] |==|  0.97626
USER: genes 4 Torsion [C]-CA--N-[C] |==|  0.78522
USER: genes 5 Torsion [N]-C--CA-[N] |==|  0.45498
USER: genes 6 Torsion [C]-CA--N-[C] |==|  0.84145
USER: genes 7 Torsion [N]-C--CA-[N] |==|  0.03986
USER: genes 8 Torsion [N]-CA--C-[N] |==|  0.98697
USER: genes 9 Torsion [C]-N--CA-[CB] |==|  0.86667
USER: genes 10 Torsion [N]-CA--C-[N] |==|  0.86248
USER: genes 11 Torsion [C]-N--CA-[CB] |==|  0.84397
USER: genes 12 Torsion [N]-CA--C-[N] |==|  0.39733
USER: genes 13 Torsion [C]-N--CA-[C] |==|  0.76924
USER: genes 14 Torsion [N]-CA--C-[O] |==|  0.98965
ROOT
ATOM      1  CA  ALA E  11       2.293  19.633   2.546  1.00 85.35 LIG 0.17  C 
ATOM      2  CB  ALA E  11       1.211  18.923   3.363  1.00 80.46 LIG 0.04  C 
ENDROOT
BRANCH 1 3
ATOM      3  N   ALA E  11       2.676  20.880   3.198  1.00 87.15 LIG-0.35  N 
ATOM      4  C   ALA E  10       1.749  21.784   3.525  1.00 62.15 LIG 0.24  C 
ATOM      5 O    ALA E  10       0.544  21.535   3.487  1.00 65.72 LIG-0.27  OA
ATOM      6 H    ALA E  11       3.519  20.971   3.343  1.00 87.15 LIG 0.16  HD
BRANCH 4 7
ATOM      7  CA  ALA E  10       2.233  23.163   3.962  1.00 66.45 LIG 0.17  C 
ATOM      8  CB  ALA E  10       1.807  24.221   2.946  1.00 58.63 LIG 0.04  C 
BRANCH 7 9
ATOM      9  N   ALA E  10       3.677  23.202   4.138  1.00 75.43 LIG-0.35  N 
ATOM     10  C   ALA E   9       4.291  22.697   5.205  1.00 82.21 LIG 0.24  C 
ATOM     11 O    ALA E   9       3.692  22.182   6.156  1.00 73.75 LIG-0.27  OA
ATOM     12 H    ALA E  10       4.095  23.582   3.489  1.00 75.43 LIG 0.16  HD
BRANCH 10 13
ATOM     13  CA  ALA E   9       5.810  22.812   5.220  1.00 87.65 LIG 0.17  C 
ATOM     14  CB  ALA E   9       6.444  21.825   4.243  1.00 72.21 LIG 0.04  C 
BRANCH 13 15
ATOM     15  N   ALA E   9       6.263  22.577   6.585  1.00 84.24 LIG-0.35  N 
ATOM     16 H    ALA E   9       6.827  21.932   6.663  1.00 84.24 LIG 0.16  HD
ATOM     17  C   ALA E   8       5.835  23.303   7.609  1.00 61.40 LIG 0.26  C 
ATOM     18 O    ALA E   8       5.103  24.281   7.470  1.00 66.21 LIG-0.27  OA
BRANCH 17 19
ATOM     19  CA  ALA E   8       6.328  22.881   8.990  1.00 67.03 LIG 0.40  C 
ATOM     20  N   ALA E   8       7.476  21.933   8.873  1.00 60.26 LIG 0.61  N 
ATOM     21  CB  ALA E   8       6.728  24.100   9.814  1.00 64.64 LIG 0.06  C 
ENDBRANCH 17 19
ENDBRANCH 13 15
ENDBRANCH 10 13
ENDBRANCH 7 9
ENDBRANCH 4 7
ENDBRANCH 1 3
BRANCH 1 22
ATOM     22  C   ALA E  11       1.807  19.873   1.122  1.00 81.78 LIG 0.24  C 
ATOM     23  N   ALA E  12       1.704  21.136   0.712  1.00 82.91 LIG-0.35  N 
ATOM     24 H    ALA E  12       1.995  21.818   1.149  1.00 82.91 LIG 0.16  HD
ATOM     25 O    ALA E  11       1.509  18.922   0.390  1.00 89.30 LIG-0.27  OA
BRANCH 23 26
ATOM     26  CA  ALA E  12       1.065  21.445  -0.559  1.00 61.10 LIG 0.17  C 
ATOM     27  CB  ALA E  12       1.607  20.540  -1.676  1.00 65.27 LIG 0.04  C 
BRANCH 26 28
ATOM     28  C   ALA E  12      -0.444  21.302  -0.446  1.00 54.59 LIG 0.24  C 
ATOM     29  N   ALA E  13      -0.857  20.159   0.104  1.00 64.78 LIG-0.35  N 
ATOM     30 H    ALA E  13      -0.327  19.568   0.433  1.00 64.78 LIG 0.16  HD
ATOM     31 O    ALA E  12      -1.205  22.204  -0.805  1.00 69.11 LIG-0.27  OA
BRANCH 29 32
ATOM     32  CA  ALA E  13      -2.266  19.812   0.195  1.00 54.23 LIG 0.17  C 
ATOM     33  CB  ALA E  13      -3.028  20.912   0.935  1.00 56.27 LIG 0.04  C 
BRANCH 32 34
ATOM     34  C   ALA E  13      -2.906  19.624  -1.169  1.00 65.29 LIG 0.24  C 
ATOM     35  N   ALA E  14      -3.810  18.654  -1.242  1.00 85.74 LIG-0.35  N 
ATOM     36 H    ALA E  14      -4.004  18.136  -0.584  1.00 85.74 LIG 0.16  HD
ATOM     37 O    ALA E  13      -2.635  20.370  -2.113  1.00 75.52 LIG-0.27  OA
BRANCH 35 38
ATOM     38  CA  ALA E  14      -4.562  18.376  -2.453  1.00 94.46 LIG 0.16  C 
ATOM     39  CB  ALA E  14      -5.011  16.933  -2.466  1.00106.12 LIG 0.04  C 
BRANCH 38 40
ATOM     40  C   ALA E  14      -5.762  19.311  -2.558  1.00 99.07 LIG 0.22  C 
ATOM     41 O    ALA E  14      -6.021  20.107  -1.656  1.00120.33 LIG-0.29  OA
ENDBRANCH 38 40
ENDBRANCH 35 38
ENDBRANCH 32 34
ENDBRANCH 29 32
ENDBRANCH 26 28
ENDBRANCH 23 26
ENDBRANCH 1 22
TORSDOF 13
ENDMDL
MODEL 119
USER: ADFR SOLUTION from run 148
USER: SCORE 5.333746 LL:  -2.487 LR:  -3.887 RR:   0.000 FEB:  -0.009
USER: RMSD 4.675458
USER: SEED 147
USER: STATUS searching
USER: GENES 15
USER: genes 0 Translation |==|  0.65613 0.27799 0.57512
USER: genes 1 Rotation |==|  0.67413 0.44300 0.60469 0.95329
USER: genes 2 Torsion [CB]-CA--N-[C] |==|  0.85142
USER: genes 3 Torsion [N]-C--CA-[N] |==|  0.97626
USER: genes 4 Torsion [C]-CA--N-[C] |==|  0.78522
USER: genes 5 Torsion [N]-C--CA-[N] |==|  0.45498
USER: genes 6 Torsion [C]-CA--N-[C] |==|  0.84145
USER: genes 7 Torsion [N]-C--CA-[N] |==|  0.03986
USER: genes 8 Torsion [N]-CA--C-[N] |==|  0.98697
USER: genes 9 Torsion [C]-N--CA-[CB] |==|  0.87189
USER: genes 10 Torsion [N]-CA--C-[N] |==|  0.86249
USER: genes 11 Torsion [C]-N--CA-[CB] |==|  0.52779
USER: genes 12 Torsion [N]-CA--C-[N] |==|  0.42272
USER: genes 13 Torsion [C]-N--CA-[C] |==|  0.17223
USER: genes 14 Torsion [N]-CA--C-[O] |==|  0.10764
ROOT
ATOM      1  CA  ALA E  11       2.293  19.633   2.546  1.00 85.35 LIG 0.17  C 
ATOM      2  CB  ALA E  11       1.211  18.923   3.363  1.00 80.46 LIG 0.04  C 
ENDROOT
BRANCH 1 3
ATOM      3  N   ALA E  11       2.676  20.880   3.198  1.00 87.15 LIG-0.35  N 
ATOM      4  C   ALA E  10       1.749  21.784   3.525  1.00 62.15 LIG 0.24  C 
ATOM      5 O    ALA E  10       0.544  21.535   3.487  1.00 65.72 LIG-0.27  OA
ATOM      6 H    ALA E  11       3.519  20.971   3.343  1.00 87.15 LIG 0.16  HD
BRANCH 4 7
ATOM      7  CA  ALA E  10       2.233  23.163   3.962  1.00 66.45 LIG 0.17  C 
ATOM      8  CB  ALA E  10       1.807  24.221   2.946  1.00 58.63 LIG 0.04  C 
BRANCH 7 9
ATOM      9  N   ALA E  10       3.677  23.202   4.138  1.00 75.43 LIG-0.35  N 
ATOM     10  C   ALA E   9       4.291  22.697   5.205  1.00 82.21 LIG 0.24  C 
ATOM     11 O    ALA E   9       3.692  22.182   6.156  1.00 73.75 LIG-0.27  OA
ATOM     12 H    ALA E  10       4.095  23.582   3.489  1.00 75.43 LIG 0.16  HD
BRANCH 10 13
ATOM     13  CA  ALA E   9       5.810  22.812   5.220  1.00 87.65 LIG 0.17  C 
ATOM     14  CB  ALA E   9       6.444  21.825   4.243  1.00 72.21 LIG 0.04  C 
BRANCH 13 15
ATOM     15  N   ALA E   9       6.263  22.577   6.585  1.00 84.24 LIG-0.35  N 
ATOM     16 H    ALA E   9       6.827  21.932   6.663  1.00 84.24 LIG 0.16  HD
ATOM     17  C   ALA E   8       5.835  23.303   7.609  1.00 61.40 LIG 0.26  C 
ATOM     18 O    ALA E   8       5.103  24.281   7.470  1.00 66.21 LIG-0.27  OA
BRANCH 17 19
ATOM     19  CA  ALA E   8       6.328  22.881   8.990  1.00 67.03 LIG 0.40  C 
ATOM     20  N   ALA E   8       7.476  21.933   8.873  1.00 60.26 LIG 0.61  N 
ATOM     21  CB  ALA E   8       6.728  24.100   9.814  1.00 64.64 LIG 0.06  C 
ENDBRANCH 17 19
ENDBRANCH 13 15
ENDBRANCH 10 13
ENDBRANCH 7 9
ENDBRANCH 4 7
ENDBRANCH 1 3
BRANCH 1 22
ATOM     22  C   ALA E  11       1.807  19.873   1.122  1.00 81.78 LIG 0.24  C 
ATOM     23  N   ALA E  12       1.704  21.136   0.712  1.00 82.91 LIG-0.35  N 
ATOM     24 H    ALA E  12       1.995  21.818   1.149  1.00 82.91 LIG 0.16  HD
ATOM     25 O    ALA E  11       1.509  18.922   0.390  1.00 89.30 LIG-0.27  OA
BRANCH 23 26
ATOM     26  CA  ALA E  12       1.065  21.445  -0.559  1.00 61.10 LIG 0.17  C 
ATOM     27  CB  ALA E  12       1.573  20.508  -1.666  1.00 65.27 LIG 0.04  C 
BRANCH 26 28
ATOM     28  C   ALA E  12      -0.447  21.347  -0.433  1.00 54.59 LIG 0.24  C 
ATOM     29  N   ALA E  13      -0.889  20.225   0.135  1.00 64.78 LIG-0.35  N 
ATOM     30 H    ALA E  13      -0.372  19.623   0.469  1.00 64.78 LIG 0.16  HD
ATOM     31 O    ALA E  12      -1.184  22.265  -0.801  1.00 69.11 LIG-0.27  OA
BRANCH 29 32
ATOM     32  CA  ALA E  13      -2.306  19.920   0.241  1.00 54.23 LIG 0.17  C 
ATOM     33  CB  ALA E  13      -2.513  18.706   1.148  1.00 56.27 LIG 0.04  C 
BRANCH 32 34
ATOM     34  C   ALA E  13      -3.108  21.079   0.804  1.00 65.29 LIG 0.24  C 
ATOM     35  N   ALA E  14      -4.377  21.133   0.417  1.00 85.74 LIG-0.35  N 
ATOM     36 H    ALA E  14      -4.726  20.580  -0.142  1.00 85.74 LIG 0.16  HD
ATOM     37 O    ALA E  13      -2.613  21.869   1.613  1.00 75.52 LIG-0.27  OA
BRANCH 35 38
ATOM     38  CA  ALA E  14      -5.302  22.139   0.906  1.00 94.46 LIG 0.16  C 
ATOM     39  CB  ALA E  14      -5.438  22.034   2.408  1.00106.12 LIG 0.04  C 
BRANCH 38 40
ATOM     40  C   ALA E  14      -4.829  23.532   0.507  1.00 99.07 LIG 0.22  C 
ATOM     41 O    ALA E  14      -4.323  23.734  -0.597  1.00120.33 LIG-0.29  OA
ENDBRANCH 38 40
ENDBRANCH 35 38
ENDBRANCH 32 34
ENDBRANCH 29 32
ENDBRANCH 26 28
ENDBRANCH 23 26
ENDBRANCH 1 22
TORSDOF 13
ENDMDL
MODEL 120
USER: ADFR SOLUTION from run 148
USER: SCORE 5.743977 LL:  -2.732 LR:  -3.888 RR:   0.000 FEB:  -0.010
USER: RMSD 6.043987
USER: SEED 147
USER: STATUS searching
USER: GENES 15
USER: genes 0 Translation |==|  0.65613 0.27799 0.57512
USER: genes 1 Rotation |==|  0.67413 0.44300 0.60469 0.95329
USER: genes 2 Torsion [CB]-CA--N-[C] |==|  0.85142
USER: genes 3 Torsion [N]-C--CA-[N] |==|  0.97626
USER: genes 4 Torsion [C]-CA--N-[C] |==|  0.78522
USER: genes 5 Torsion [N]-C--CA-[N] |==|  0.45498
USER: genes 6 Torsion [C]-CA--N-[C] |==|  0.84145
USER: genes 7 Torsion [N]-C--CA-[N] |==|  0.03986
USER: genes 8 Torsion [N]-CA--C-[N] |==|  0.98697
USER: genes 9 Torsion [C]-N--CA-[CB] |==|  0.18333
USER: genes 10 Torsion [N]-CA--C-[N] |==|  0.10267
USER: genes 11 Torsion [C]-N--CA-[CB] |==|  0.84434
USER: genes 12 Torsion [N]-CA--C-[N] |==|  0.39999
USER: genes 13 Torsion [C]-N--CA-[C] |==|  0.76943
USER: genes 14 Torsion [N]-CA--C-[O] |==|  0.98965
ROOT
ATOM      1  CA  ALA E  11       2.293  19.633   2.546  1.00 85.35 LIG 0.17  C 
ATOM      2  CB  ALA E  11       1.211  18.923   3.363  1.00 80.46 LIG 0.04  C 
ENDROOT
BRANCH 1 3
ATOM      3  N   ALA E  11       2.676  20.880   3.198  1.00 87.15 LIG-0.35  N 
ATOM      4  C   ALA E  10       1.749  21.784   3.525  1.00 62.15 LIG 0.24  C 
ATOM      5 O    ALA E  10       0.544  21.535   3.487  1.00 65.72 LIG-0.27  OA
ATOM      6 H    ALA E  11       3.519  20.971   3.343  1.00 87.15 LIG 0.16  HD
BRANCH 4 7
ATOM      7  CA  ALA E  10       2.233  23.163   3.962  1.00 66.45 LIG 0.17  C 
ATOM      8  CB  ALA E  10       1.807  24.221   2.946  1.00 58.63 LIG 0.04  C 
BRANCH 7 9
ATOM      9  N   ALA E  10       3.677  23.202   4.138  1.00 75.43 LIG-0.35  N 
ATOM     10  C   ALA E   9       4.291  22.697   5.205  1.00 82.21 LIG 0.24  C 
ATOM     11 O    ALA E   9       3.692  22.182   6.156  1.00 73.75 LIG-0.27  OA
ATOM     12 H    ALA E  10       4.095  23.582   3.489  1.00 75.43 LIG 0.16  HD
BRANCH 10 13
ATOM     13  CA  ALA E   9       5.810  22.812   5.220  1.00 87.65 LIG 0.17  C 
ATOM     14  CB  ALA E   9       6.444  21.825   4.243  1.00 72.21 LIG 0.04  C 
BRANCH 13 15
ATOM     15  N   ALA E   9       6.263  22.577   6.585  1.00 84.24 LIG-0.35  N 
ATOM     16 H    ALA E   9       6.827  21.932   6.663  1.00 84.24 LIG 0.16  HD
ATOM     17  C   ALA E   8       5.835  23.303   7.609  1.00 61.40 LIG 0.26  C 
ATOM     18 O    ALA E   8       5.103  24.281   7.470  1.00 66.21 LIG-0.27  OA
BRANCH 17 19
ATOM     19  CA  ALA E   8       6.328  22.881   8.990  1.00 67.03 LIG 0.40  C 
ATOM     20  N   ALA E   8       7.476  21.933   8.873  1.00 60.26 LIG 0.61  N 
ATOM     21  CB  ALA E   8       6.728  24.100   9.814  1.00 64.64 LIG 0.06  C 
ENDBRANCH 17 19
ENDBRANCH 13 15
ENDBRANCH 10 13
ENDBRANCH 7 9
ENDBRANCH 4 7
ENDBRANCH 1 3
BRANCH 1 22
ATOM     22  C   ALA E  11       1.807  19.873   1.122  1.00 81.78 LIG 0.24  C 
ATOM     23  N   ALA E  12       1.704  21.136   0.712  1.00 82.91 LIG-0.35  N 
ATOM     24 H    ALA E  12       1.995  21.818   1.149  1.00 82.91 LIG 0.16  HD
ATOM     25 O    ALA E  11       1.509  18.922   0.390  1.00 89.30 LIG-0.27  OA
BRANCH 23 26
ATOM     26  CA  ALA E  12       1.065  21.445  -0.559  1.00 61.10 LIG 0.17  C 
ATOM     27  CB  ALA E  12      -0.430  21.094  -0.516  1.00 65.27 LIG 0.04  C 
BRANCH 26 28
ATOM     28  C   ALA E  12       1.257  22.911  -0.911  1.00 54.59 LIG 0.24  C 
ATOM     29  N   ALA E  13       2.444  23.416  -0.572  1.00 64.78 LIG-0.35  N 
ATOM     30 H    ALA E  13       3.085  22.948  -0.240  1.00 64.78 LIG 0.16  HD
ATOM     31 O    ALA E  12       0.382  23.552  -1.499  1.00 69.11 LIG-0.27  OA
BRANCH 29 32
ATOM     32  CA  ALA E  13       2.759  24.825  -0.740  1.00 54.23 LIG 0.17  C 
ATOM     33  CB  ALA E  13       2.546  25.238  -2.197  1.00 56.27 LIG 0.04  C 
BRANCH 32 34
ATOM     34  C   ALA E  13       1.903  25.718   0.140  1.00 65.29 LIG 0.24  C 
ATOM     35  N   ALA E  14       2.518  26.789   0.630  1.00 85.74 LIG-0.35  N 
ATOM     36 H    ALA E  14       3.351  26.959   0.499  1.00 85.74 LIG 0.16  HD
ATOM     37 O    ALA E  13       0.706  25.482   0.323  1.00 75.52 LIG-0.27  OA
BRANCH 35 38
ATOM     38  CA  ALA E  14       1.835  27.781   1.440  1.00 94.46 LIG 0.16  C 
ATOM     39  CB  ALA E  14       2.823  28.492   2.336  1.00106.12 LIG 0.04  C 
BRANCH 38 40
ATOM     40  C   ALA E  14       1.104  28.780   0.550  1.00 99.07 LIG 0.22  C 
ATOM     41 O    ALA E  14       1.201  28.720  -0.676  1.00120.33 LIG-0.29  OA
ENDBRANCH 38 40
ENDBRANCH 35 38
ENDBRANCH 32 34
ENDBRANCH 29 32
ENDBRANCH 26 28
ENDBRANCH 23 26
ENDBRANCH 1 22
TORSDOF 13
ENDMDL
MODEL 121
USER: ADFR SOLUTION from run 169
USER: SCORE 3.628178 LL:  -2.577 LR:  -3.880 RR:   0.000 FEB:  -0.002
USER: RMSD 4.552930
USER: SEED 168
USER: STATUS no improvement in best in 106 clusters for 5 generations
USER: GENES 15
USER: genes 0 Translation |==|  0.56297 0.26329 0.59944
USER: genes 1 Rotation |==|  0.55915 0.39611 0.57641 0.97945
USER: genes 2 Torsion [CB]-CA--N-[C] |==|  0.40242
USER: genes 3 Torsion [N]-C--CA-[N] |==|  0.46060
USER: genes 4 Torsion [C]-CA--N-[C] |==|  0.68122
USER: genes 5 Torsion [N]-C--CA-[N] |==|  0.16111
USER: genes 6 Torsion [C]-CA--N-[C] |==|  0.78303
USER: genes 7 Torsion [N]-C--CA-[N] |==|  0.42194
USER: genes 8 Torsion [N]-CA--C-[N] |==|  0.34745
USER: genes 9 Torsion [C]-N--CA-[CB] |==|  0.49206
USER: genes 10 Torsion [N]-CA--C-[N] |==|  0.42319
USER: genes 11 Torsion [C]-N--CA-[CB] |==|  0.84435
USER: genes 12 Torsion [N]-CA--C-[N] |==|  0.39290
USER: genes 13 Torsion [C]-N--CA-[C] |==|  0.74808
USER: genes 14 Torsion [N]-CA--C-[O] |==|  0.01491
ROOT
ATOM      1  CA  ALA E  11       0.197  19.368   2.984  1.00 85.35 LIG 0.17  C 
ATOM      2  CB  ALA E  11      -1.155  19.281   3.695  1.00 80.46 LIG 0.04  C 
ENDROOT
BRANCH 1 3
ATOM      3  N   ALA E  11       0.802  20.675   3.215  1.00 87.15 LIG-0.35  N 
ATOM      4  C   ALA E  10       2.126  20.794   3.343  1.00 62.15 LIG 0.24  C 
ATOM      5 O    ALA E  10       2.899  19.873   3.075  1.00 65.72 LIG-0.27  OA
ATOM      6 H    ALA E  11       0.247  21.331   3.258  1.00 87.15 LIG 0.16  HD
BRANCH 4 7
ATOM      7  CA  ALA E  10       2.669  22.130   3.837  1.00 66.45 LIG 0.17  C 
ATOM      8  CB  ALA E  10       2.522  23.196   2.753  1.00 58.63 LIG 0.04  C 
BRANCH 7 9
ATOM      9  N   ALA E  10       4.063  22.034   4.246  1.00 75.43 LIG-0.35  N 
ATOM     10  C   ALA E   9       4.463  22.211   5.503  1.00 82.21 LIG 0.24  C 
ATOM     11 O    ALA E   9       3.697  22.505   6.428  1.00 73.75 LIG-0.27  OA
ATOM     12 H    ALA E  10       4.602  21.852   3.601  1.00 75.43 LIG 0.16  HD
BRANCH 10 13
ATOM     13  CA  ALA E   9       5.957  22.060   5.757  1.00 87.65 LIG 0.17  C 
ATOM     14  CB  ALA E   9       6.287  22.275   7.233  1.00 72.21 LIG 0.04  C 
BRANCH 13 15
ATOM     15  N   ALA E   9       6.654  23.018   4.910  1.00 84.24 LIG-0.35  N 
ATOM     16 H    ALA E   9       6.922  23.723   5.323  1.00 84.24 LIG 0.16  HD
ATOM     17  C   ALA E   8       6.851  22.807   3.616  1.00 61.40 LIG 0.26  C 
ATOM     18 O    ALA E   8       6.546  21.754   3.060  1.00 66.21 LIG-0.27  OA
BRANCH 17 19
ATOM     19  CA  ALA E   8       7.516  23.940   2.840  1.00 67.03 LIG 0.40  C 
ATOM     20  N   ALA E   8       8.276  23.403   1.671  1.00 60.26 LIG 0.61  N 
ATOM     21  CB  ALA E   8       6.478  24.956   2.377  1.00 64.64 LIG 0.06  C 
ENDBRANCH 17 19
ENDBRANCH 13 15
ENDBRANCH 10 13
ENDBRANCH 7 9
ENDBRANCH 4 7
ENDBRANCH 1 3
BRANCH 1 22
ATOM     22  C   ALA E  11       0.029  19.086   1.496  1.00 81.78 LIG 0.24  C 
ATOM     23  N   ALA E  12       0.567  17.965   1.019  1.00 82.91 LIG-0.35  N 
ATOM     24 H    ALA E  12       0.903  17.338   1.503  1.00 82.91 LIG 0.16  HD
ATOM     25 O    ALA E  11      -0.575  19.883   0.768  1.00 89.30 LIG-0.27  OA
BRANCH 23 26
ATOM     26  CA  ALA E  12       0.615  17.729  -0.418  1.00 61.10 LIG 0.17  C 
ATOM     27  CB  ALA E  12       1.339  16.410  -0.730  1.00 65.27 LIG 0.04  C 
BRANCH 26 28
ATOM     28  C   ALA E  12      -0.788  17.715  -1.003  1.00 54.59 LIG 0.24  C 
ATOM     29  N   ALA E  13      -0.864  18.082  -2.282  1.00 64.78 LIG-0.35  N 
ATOM     30 H    ALA E  13      -0.177  18.252  -2.772  1.00 64.78 LIG 0.16  HD
ATOM     31 O    ALA E  12      -1.760  17.351  -0.336  1.00 69.11 LIG-0.27  OA
BRANCH 29 32
ATOM     32  CA  ALA E  13      -2.137  18.225  -2.970  1.00 54.23 LIG 0.17  C 
ATOM     33  CB  ALA E  13      -2.931  16.922  -2.876  1.00 56.27 LIG 0.04  C 
BRANCH 32 34
ATOM     34  C   ALA E  13      -2.984  19.344  -2.391  1.00 65.29 LIG 0.24  C 
ATOM     35  N   ALA E  14      -3.661  20.061  -3.281  1.00 85.74 LIG-0.35  N 
ATOM     36 H    ALA E  14      -3.606  19.938  -4.130  1.00 85.74 LIG 0.16  HD
ATOM     37 O    ALA E  13      -3.073  19.518  -1.173  1.00 75.52 LIG-0.27  OA
BRANCH 35 38
ATOM     38  CA  ALA E  14      -4.567  21.129  -2.899  1.00 94.46 LIG 0.16  C 
ATOM     39  CB  ALA E  14      -4.554  22.221  -3.944  1.00106.12 LIG 0.04  C 
BRANCH 38 40
ATOM     40  C   ALA E  14      -5.979  20.585  -2.710  1.00 99.07 LIG 0.22  C 
ATOM     41 O    ALA E  14      -6.204  19.377  -2.785  1.00120.33 LIG-0.29  OA
ENDBRANCH 38 40
ENDBRANCH 35 38
ENDBRANCH 32 34
ENDBRANCH 29 32
ENDBRANCH 26 28
ENDBRANCH 23 26
ENDBRANCH 1 22
TORSDOF 13
ENDMDL
MODEL 122
USER: ADFR SOLUTION from run 169
USER: SCORE 4.607787 LL:  -2.697 LR:  -3.879 RR:   0.000 FEB:  -0.001
USER: RMSD 4.887466
USER: SEED 168
USER: STATUS no improvement in best in 106 clusters for 5 generations
USER: GENES 15
USER: genes 0 Translation |==|  0.62455 0.40355 0.63547
USER: genes 1 Rotation |==|  0.39543 0.35806 0.40434 0.95800
USER: genes 2 Torsion [CB]-CA--N-[C] |==|  0.45000
USER: genes 3 Torsion [N]-C--CA-[N] |==|  0.12916
USER: genes 4 Torsion [C]-CA--N-[C] |==|  0.12892
USER: genes 5 Torsion [N]-C--CA-[N] |==|  0.30814
USER: genes 6 Torsion [C]-CA--N-[C] |==|  0.71685
USER: genes 7 Torsion [N]-C--CA-[N] |==|  0.54340
USER: genes 8 Torsion [N]-CA--C-[N] |==|  0.39582
USER: genes 9 Torsion [C]-N--CA-[CB] |==|  0.49801
USER: genes 10 Torsion [N]-CA--C-[N] |==|  0.42795
USER: genes 11 Torsion [C]-N--CA-[CB] |==|  0.84803
USER: genes 12 Torsion [N]-CA--C-[N] |==|  0.39115
USER: genes 13 Torsion [C]-N--CA-[C] |==|  0.74885
USER: genes 14 Torsion [N]-CA--C-[O] |==|  0.01491
ROOT
ATOM      1  CA  ALA E  11       1.582  21.893   3.632  1.00 85.35 LIG 0.17  C 
ATOM      2  CB  ALA E  11       0.635  23.079   3.826  1.00 80.46 LIG 0.04  C 
ENDROOT
BRANCH 1 3
ATOM      3  N   ALA E  11       2.967  22.353   3.617  1.00 87.15 LIG-0.35  N 
ATOM      4  C   ALA E  10       3.967  21.492   3.820  1.00 62.15 LIG 0.24  C 
ATOM      5 O    ALA E  10       3.796  20.273   3.823  1.00 65.72 LIG-0.27  OA
ATOM      6 H    ALA E  11       3.069  23.195   3.472  1.00 87.15 LIG 0.16  HD
BRANCH 4 7
ATOM      7  CA  ALA E  10       5.359  22.071   4.049  1.00 66.45 LIG 0.17  C 
ATOM      8  CB  ALA E  10       6.316  20.980   4.527  1.00 58.63 LIG 0.04  C 
BRANCH 7 9
ATOM      9  N   ALA E  10       5.342  23.166   5.008  1.00 75.43 LIG-0.35  N 
ATOM     10  C   ALA E   9       4.692  23.104   6.168  1.00 82.21 LIG 0.24  C 
ATOM     11 O    ALA E   9       4.019  22.129   6.521  1.00 73.75 LIG-0.27  OA
ATOM     12 H    ALA E  10       5.790  23.856   4.755  1.00 75.43 LIG 0.16  HD
BRANCH 10 13
ATOM     13  CA  ALA E   9       4.792  24.336   7.057  1.00 87.65 LIG 0.17  C 
ATOM     14  CB  ALA E   9       5.270  23.963   8.459  1.00 72.21 LIG 0.04  C 
BRANCH 13 15
ATOM     15  N   ALA E   9       3.480  24.970   7.093  1.00 84.24 LIG-0.35  N 
ATOM     16 H    ALA E   9       2.916  24.582   7.614  1.00 84.24 LIG 0.16  HD
ATOM     17  C   ALA E   8       3.196  26.050   6.379  1.00 61.40 LIG 0.26  C 
ATOM     18 O    ALA E   8       4.039  26.647   5.713  1.00 66.21 LIG-0.27  OA
BRANCH 17 19
ATOM     19  CA  ALA E   8       1.755  26.547   6.449  1.00 67.03 LIG 0.40  C 
ATOM     20  N   ALA E   8       1.475  27.508   5.340  1.00 60.26 LIG 0.61  N 
ATOM     21  CB  ALA E   8       0.780  25.376   6.397  1.00 64.64 LIG 0.06  C 
ENDBRANCH 17 19
ENDBRANCH 13 15
ENDBRANCH 10 13
ENDBRANCH 7 9
ENDBRANCH 4 7
ENDBRANCH 1 3
BRANCH 1 22
ATOM     22  C   ALA E  11       1.231  21.139   2.356  1.00 81.78 LIG 0.24  C 
ATOM     23  N   ALA E  12       0.426  20.084   2.467  1.00 82.91 LIG-0.35  N 
ATOM     24 H    ALA E  12       0.005  19.862   3.183  1.00 82.91 LIG 0.16  HD
ATOM     25 O    ALA E  11       1.692  21.498   1.265  1.00 89.30 LIG-0.27  OA
BRANCH 23 26
ATOM     26  CA  ALA E  12       0.207  19.206   1.325  1.00 61.10 LIG 0.17  C 
ATOM     27  CB  ALA E  12      -0.739  18.054   1.697  1.00 65.27 LIG 0.04  C 
BRANCH 26 28
ATOM     28  C   ALA E  12      -0.349  19.991   0.148  1.00 54.59 LIG 0.24  C 
ATOM     29  N   ALA E  13      -0.087  19.465  -1.048  1.00 64.78 LIG-0.35  N 
ATOM     30 H    ALA E  13       0.307  18.709  -1.162  1.00 64.78 LIG 0.16  HD
ATOM     31 O    ALA E  12      -1.021  21.012   0.316  1.00 69.11 LIG-0.27  OA
BRANCH 29 32
ATOM     32  CA  ALA E  13      -0.453  20.138  -2.284  1.00 54.23 LIG 0.17  C 
ATOM     33  CB  ALA E  13      -1.947  20.463  -2.279  1.00 56.27 LIG 0.04  C 
BRANCH 32 34
ATOM     34  C   ALA E  13       0.316  21.431  -2.489  1.00 65.29 LIG 0.24  C 
ATOM     35  N   ALA E  14       0.698  21.672  -3.738  1.00 85.74 LIG-0.35  N 
ATOM     36 H    ALA E  14       0.561  21.128  -4.389  1.00 85.74 LIG 0.16  HD
ATOM     37 O    ALA E  13       0.507  22.218  -1.559  1.00 75.52 LIG-0.27  OA
BRANCH 35 38
ATOM     38  CA  ALA E  14       1.389  22.889  -4.123  1.00 94.46 LIG 0.16  C 
ATOM     39  CB  ALA E  14       2.355  22.604  -5.251  1.00106.12 LIG 0.04  C 
BRANCH 38 40
ATOM     40  C   ALA E  14       0.386  23.960  -4.536  1.00 99.07 LIG 0.22  C 
ATOM     41 O    ALA E  14      -0.824  23.768  -4.421  1.00120.33 LIG-0.29  OA
ENDBRANCH 38 40
ENDBRANCH 35 38
ENDBRANCH 32 34
ENDBRANCH 29 32
ENDBRANCH 26 28
ENDBRANCH 23 26
ENDBRANCH 1 22
TORSDOF 13
ENDMDL
MODEL 123
USER: ADFR SOLUTION from run 169
USER: SCORE 4.362616 LL:  -2.742 LR:  -3.879 RR:   0.000 FEB:  -0.001
USER: RMSD 4.164361
USER: SEED 168
USER: STATUS no improvement in best in 106 clusters for 5 generations
USER: GENES 15
USER: genes 0 Translation |==|  0.62455 0.40355 0.63547
USER: genes 1 Rotation |==|  0.39543 0.35806 0.40434 0.95800
USER: genes 2 Torsion [CB]-CA--N-[C] |==|  0.45000
USER: genes 3 Torsion [N]-C--CA-[N] |==|  0.12916
USER: genes 4 Torsion [C]-CA--N-[C] |==|  0.12892
USER: genes 5 Torsion [N]-C--CA-[N] |==|  0.30814
USER: genes 6 Torsion [C]-CA--N-[C] |==|  0.71685
USER: genes 7 Torsion [N]-C--CA-[N] |==|  0.54340
USER: genes 8 Torsion [N]-CA--C-[N] |==|  0.39582
USER: genes 9 Torsion [C]-N--CA-[CB] |==|  0.48905
USER: genes 10 Torsion [N]-CA--C-[N] |==|  0.43854
USER: genes 11 Torsion [C]-N--CA-[CB] |==|  0.51191
USER: genes 12 Torsion [N]-CA--C-[N] |==|  0.43132
USER: genes 13 Torsion [C]-N--CA-[C] |==|  0.74885
USER: genes 14 Torsion [N]-CA--C-[O] |==|  0.01491
ROOT
ATOM      1  CA  ALA E  11       1.582  21.893   3.632  1.00 85.35 LIG 0.17  C 
ATOM      2  CB  ALA E  11       0.635  23.079   3.826  1.00 80.46 LIG 0.04  C 
ENDROOT
BRANCH 1 3
ATOM      3  N   ALA E  11       2.967  22.353   3.617  1.00 87.15 LIG-0.35  N 
ATOM      4  C   ALA E  10       3.967  21.492   3.820  1.00 62.15 LIG 0.24  C 
ATOM      5 O    ALA E  10       3.796  20.273   3.823  1.00 65.72 LIG-0.27  OA
ATOM      6 H    ALA E  11       3.069  23.195   3.472  1.00 87.15 LIG 0.16  HD
BRANCH 4 7
ATOM      7  CA  ALA E  10       5.359  22.071   4.049  1.00 66.45 LIG 0.17  C 
ATOM      8  CB  ALA E  10       6.316  20.980   4.527  1.00 58.63 LIG 0.04  C 
BRANCH 7 9
ATOM      9  N   ALA E  10       5.342  23.166   5.008  1.00 75.43 LIG-0.35  N 
ATOM     10  C   ALA E   9       4.692  23.104   6.168  1.00 82.21 LIG 0.24  C 
ATOM     11 O    ALA E   9       4.019  22.129   6.521  1.00 73.75 LIG-0.27  OA
ATOM     12 H    ALA E  10       5.790  23.856   4.755  1.00 75.43 LIG 0.16  HD
BRANCH 10 13
ATOM     13  CA  ALA E   9       4.792  24.336   7.057  1.00 87.65 LIG 0.17  C 
ATOM     14  CB  ALA E   9       5.270  23.963   8.459  1.00 72.21 LIG 0.04  C 
BRANCH 13 15
ATOM     15  N   ALA E   9       3.480  24.970   7.093  1.00 84.24 LIG-0.35  N 
ATOM     16 H    ALA E   9       2.916  24.582   7.614  1.00 84.24 LIG 0.16  HD
ATOM     17  C   ALA E   8       3.196  26.050   6.379  1.00 61.40 LIG 0.26  C 
ATOM     18 O    ALA E   8       4.039  26.647   5.713  1.00 66.21 LIG-0.27  OA
BRANCH 17 19
ATOM     19  CA  ALA E   8       1.755  26.547   6.449  1.00 67.03 LIG 0.40  C 
ATOM     20  N   ALA E   8       1.475  27.508   5.340  1.00 60.26 LIG 0.61  N 
ATOM     21  CB  ALA E   8       0.780  25.376   6.397  1.00 64.64 LIG 0.06  C 
ENDBRANCH 17 19
ENDBRANCH 13 15
ENDBRANCH 10 13
ENDBRANCH 7 9
ENDBRANCH 4 7
ENDBRANCH 1 3
BRANCH 1 22
ATOM     22  C   ALA E  11       1.231  21.139   2.356  1.00 81.78 LIG 0.24  C 
ATOM     23  N   ALA E  12       0.426  20.084   2.467  1.00 82.91 LIG-0.35  N 
ATOM     24 H    ALA E  12       0.005  19.862   3.183  1.00 82.91 LIG 0.16  HD
ATOM     25 O    ALA E  11       1.692  21.498   1.265  1.00 89.30 LIG-0.27  OA
BRANCH 23 26
ATOM     26  CA  ALA E  12       0.207  19.206   1.325  1.00 61.10 LIG 0.17  C 
ATOM     27  CB  ALA E  12      -0.674  18.010   1.718  1.00 65.27 LIG 0.04  C 
BRANCH 26 28
ATOM     28  C   ALA E  12      -0.423  19.975   0.175  1.00 54.59 LIG 0.24  C 
ATOM     29  N   ALA E  13      -0.246  19.426  -1.027  1.00 64.78 LIG-0.35  N 
ATOM     30 H    ALA E  13       0.135  18.666  -1.154  1.00 64.78 LIG 0.16  HD
ATOM     31 O    ALA E  12      -1.076  21.004   0.370  1.00 69.11 LIG-0.27  OA
BRANCH 29 32
ATOM     32  CA  ALA E  13      -0.691  20.081  -2.247  1.00 54.23 LIG 0.17  C 
ATOM     33  CB  ALA E  13      -0.447  19.167  -3.449  1.00 56.27 LIG 0.04  C 
BRANCH 32 34
ATOM     34  C   ALA E  13      -2.167  20.435  -2.209  1.00 65.29 LIG 0.24  C 
ATOM     35  N   ALA E  14      -2.529  21.441  -2.997  1.00 85.74 LIG-0.35  N 
ATOM     36 H    ALA E  14      -1.974  21.894  -3.472  1.00 85.74 LIG 0.16  HD
ATOM     37 O    ALA E  13      -2.966  19.782  -1.534  1.00 75.52 LIG-0.27  OA
BRANCH 35 38
ATOM     38  CA  ALA E  14      -3.909  21.873  -3.129  1.00 94.46 LIG 0.16  C 
ATOM     39  CB  ALA E  14      -3.966  23.365  -3.366  1.00106.12 LIG 0.04  C 
BRANCH 38 40
ATOM     40  C   ALA E  14      -4.591  21.123  -4.267  1.00 99.07 LIG 0.22  C 
ATOM     41 O    ALA E  14      -4.010  20.217  -4.864  1.00120.33 LIG-0.29  OA
ENDBRANCH 38 40
ENDBRANCH 35 38
ENDBRANCH 32 34
ENDBRANCH 29 32
ENDBRANCH 26 28
ENDBRANCH 23 26
ENDBRANCH 1 22
TORSDOF 13
ENDMDL
MODEL 124
USER: ADFR SOLUTION from run 65
USER: SCORE 4.050628 LL:  -2.745 LR:  -3.878 RR:   0.000 FEB:   0.000
USER: RMSD 4.662234
USER: SEED 64
USER: STATUS no improvement in best in 13 clusters for 5 generations
USER: GENES 15
USER: genes 0 Translation |==|  0.56172 0.25491 0.62034
USER: genes 1 Rotation |==|  0.53018 0.35314 0.58249 0.96980
USER: genes 2 Torsion [CB]-CA--N-[C] |==|  0.45277
USER: genes 3 Torsion [N]-C--CA-[N] |==|  0.45556
USER: genes 4 Torsion [C]-CA--N-[C] |==|  0.67016
USER: genes 5 Torsion [N]-C--CA-[N] |==|  0.16723
USER: genes 6 Torsion [C]-CA--N-[C] |==|  0.78224
USER: genes 7 Torsion [N]-C--CA-[N] |==|  0.37938
USER: genes 8 Torsion [N]-CA--C-[N] |==|  0.91506
USER: genes 9 Torsion [C]-N--CA-[CB] |==|  0.17656
USER: genes 10 Torsion [N]-CA--C-[N] |==|  0.09649
USER: genes 11 Torsion [C]-N--CA-[CB] |==|  0.84443
USER: genes 12 Torsion [N]-CA--C-[N] |==|  0.39999
USER: genes 13 Torsion [C]-N--CA-[C] |==|  0.75900
USER: genes 14 Torsion [N]-CA--C-[O] |==|  0.98805
ROOT
ATOM      1  CA  ALA E  11       0.169  19.217   3.360  1.00 85.35 LIG 0.17  C 
ATOM      2  CB  ALA E  11      -1.296  19.201   3.802  1.00 80.46 LIG 0.04  C 
ENDROOT
BRANCH 1 3
ATOM      3  N   ALA E  11       0.749  20.535   3.594  1.00 87.15 LIG-0.35  N 
ATOM      4  C   ALA E  10       2.074  20.697   3.608  1.00 62.15 LIG 0.24  C 
ATOM      5 O    ALA E  10       2.850  19.818   3.231  1.00 65.72 LIG-0.27  OA
ATOM      6 H    ALA E  11       0.179  21.168   3.716  1.00 87.15 LIG 0.16  HD
BRANCH 4 7
ATOM      7  CA  ALA E  10       2.616  22.031   4.110  1.00 66.45 LIG 0.17  C 
ATOM      8  CB  ALA E  10       2.374  23.127   3.072  1.00 58.63 LIG 0.04  C 
BRANCH 7 9
ATOM      9  N   ALA E  10       4.034  21.958   4.427  1.00 75.43 LIG-0.35  N 
ATOM     10  C   ALA E   9       4.516  22.183   5.648  1.00 82.21 LIG 0.24  C 
ATOM     11 O    ALA E   9       3.811  22.505   6.611  1.00 73.75 LIG-0.27  OA
ATOM     12 H    ALA E  10       4.530  21.758   3.754  1.00 75.43 LIG 0.16  HD
BRANCH 10 13
ATOM     13  CA  ALA E   9       6.025  22.050   5.806  1.00 87.65 LIG 0.17  C 
ATOM     14  CB  ALA E   9       6.445  22.267   7.258  1.00 72.21 LIG 0.04  C 
BRANCH 13 15
ATOM     15  N   ALA E   9       6.655  23.019   4.919  1.00 84.24 LIG-0.35  N 
ATOM     16 H    ALA E   9       6.936  23.729   5.315  1.00 84.24 LIG 0.16  HD
ATOM     17  C   ALA E   8       6.777  22.812   3.615  1.00 61.40 LIG 0.26  C 
ATOM     18 O    ALA E   8       6.455  21.754   3.078  1.00 66.21 LIG-0.27  OA
BRANCH 17 19
ATOM     19  CA  ALA E   8       7.376  23.955   2.801  1.00 67.03 LIG 0.40  C 
ATOM     20  N   ALA E   8       8.369  23.435   1.814  1.00 60.26 LIG 0.61  N 
ATOM     21  CB  ALA E   8       6.279  24.739   2.089  1.00 64.64 LIG 0.06  C 
ENDBRANCH 17 19
ENDBRANCH 13 15
ENDBRANCH 10 13
ENDBRANCH 7 9
ENDBRANCH 4 7
ENDBRANCH 1 3
BRANCH 1 22
ATOM     22  C   ALA E  11       0.283  18.809   1.897  1.00 81.78 LIG 0.24  C 
ATOM     23  N   ALA E  12       0.261  19.779   0.984  1.00 82.91 LIG-0.35  N 
ATOM     24 H    ALA E  12       0.298  20.620   1.162  1.00 82.91 LIG 0.16  HD
ATOM     25 O    ALA E  11       0.379  17.616   1.582  1.00 89.30 LIG-0.27  OA
BRANCH 23 26
ATOM     26  CA  ALA E  12       0.169  19.450  -0.432  1.00 61.10 LIG 0.17  C 
ATOM     27  CB  ALA E  12      -1.161  18.746  -0.743  1.00 65.27 LIG 0.04  C 
BRANCH 26 28
ATOM     28  C   ALA E  12       0.317  20.703  -1.280  1.00 54.59 LIG 0.24  C 
ATOM     29  N   ALA E  13       1.157  21.614  -0.789  1.00 64.78 LIG-0.35  N 
ATOM     30 H    ALA E  13       1.635  21.493  -0.085  1.00 64.78 LIG 0.16  HD
ATOM     31 O    ALA E  12      -0.276  20.826  -2.355  1.00 69.11 LIG-0.27  OA
BRANCH 29 32
ATOM     32  CA  ALA E  13       1.339  22.913  -1.416  1.00 54.23 LIG 0.17  C 
ATOM     33  CB  ALA E  13       1.746  22.735  -2.879  1.00 56.27 LIG 0.04  C 
BRANCH 32 34
ATOM     34  C   ALA E  13       0.079  23.760  -1.371  1.00 65.29 LIG 0.24  C 
ATOM     35  N   ALA E  14       0.277  25.062  -1.200  1.00 85.74 LIG-0.35  N 
ATOM     36 H    ALA E  14       1.053  25.412  -1.084  1.00 85.74 LIG 0.16  HD
ATOM     37 O    ALA E  13      -1.035  23.261  -1.546  1.00 75.52 LIG-0.27  OA
BRANCH 35 38
ATOM     38  CA  ALA E  14      -0.811  26.023  -1.194  1.00 94.46 LIG 0.16  C 
ATOM     39  CB  ALA E  14      -0.454  27.207  -0.323  1.00106.12 LIG 0.04  C 
BRANCH 38 40
ATOM     40  C   ALA E  14      -1.124  26.479  -2.614  1.00 99.07 LIG 0.22  C 
ATOM     41 O    ALA E  14      -0.439  26.099  -3.564  1.00120.33 LIG-0.29  OA
ENDBRANCH 38 40
ENDBRANCH 35 38
ENDBRANCH 32 34
ENDBRANCH 29 32
ENDBRANCH 26 28
ENDBRANCH 23 26
ENDBRANCH 1 22
TORSDOF 13
ENDMDL
MODEL 125
USER: ADFR SOLUTION from run 56
USER: SCORE 5.267196 LL:  -2.892 LR:  -3.871 RR:   0.000 FEB:   0.006
USER: RMSD 4.673098
USER: SEED 55
USER: STATUS no improvement in best in 18 clusters for 5 generations
USER: GENES 15
USER: genes 0 Translation |==|  0.63327 0.31958 0.60990
USER: genes 1 Rotation |==|  0.80489 0.72709 0.58069 0.81458
USER: genes 2 Torsion [CB]-CA--N-[C] |==|  0.12705
USER: genes 3 Torsion [N]-C--CA-[N] |==|  0.05811
USER: genes 4 Torsion [C]-CA--N-[C] |==|  0.70371
USER: genes 5 Torsion [N]-C--CA-[N] |==|  0.40273
USER: genes 6 Torsion [C]-CA--N-[C] |==|  0.85993
USER: genes 7 Torsion [N]-C--CA-[N] |==|  0.30821
USER: genes 8 Torsion [N]-CA--C-[N] |==|  0.09358
USER: genes 9 Torsion [C]-N--CA-[CB] |==|  0.22216
USER: genes 10 Torsion [N]-CA--C-[N] |==|  0.98015
USER: genes 11 Torsion [C]-N--CA-[CB] |==|  0.84548
USER: genes 12 Torsion [N]-CA--C-[N] |==|  0.84444
USER: genes 13 Torsion [C]-N--CA-[C] |==|  0.64286
USER: genes 14 Torsion [N]-CA--C-[O] |==|  0.01907
ROOT
ATOM      1  CA  ALA E  11       1.779  20.381   3.172  1.00 85.35 LIG 0.17  C 
ATOM      2  CB  ALA E  11       2.360  19.103   3.780  1.00 80.46 LIG 0.04  C 
ENDROOT
BRANCH 1 3
ATOM      3  N   ALA E  11       2.346  21.553   3.830  1.00 87.15 LIG-0.35  N 
ATOM      4  C   ALA E  10       3.660  21.632   4.055  1.00 62.15 LIG 0.24  C 
ATOM      5 O    ALA E  10       4.463  20.845   3.551  1.00 65.72 LIG-0.27  OA
ATOM      6 H    ALA E  11       1.776  22.159   4.049  1.00 87.15 LIG 0.16  HD
BRANCH 4 7
ATOM      7  CA  ALA E  10       4.153  22.749   4.968  1.00 66.45 LIG 0.17  C 
ATOM      8  CB  ALA E  10       5.325  22.261   5.819  1.00 58.63 LIG 0.04  C 
BRANCH 7 9
ATOM      9  N   ALA E  10       3.095  23.254   5.830  1.00 75.43 LIG-0.35  N 
ATOM     10  C   ALA E   9       2.512  24.436   5.646  1.00 82.21 LIG 0.24  C 
ATOM     11 O    ALA E   9       2.838  25.225   4.752  1.00 73.75 LIG-0.27  OA
ATOM     12 H    ALA E  10       2.882  22.718   6.468  1.00 75.43 LIG 0.16  HD
BRANCH 10 13
ATOM     13  CA  ALA E   9       1.413  24.802   6.634  1.00 87.65 LIG 0.17  C 
ATOM     14  CB  ALA E   9       0.042  24.381   6.109  1.00 72.21 LIG 0.04  C 
BRANCH 13 15
ATOM     15  N   ALA E   9       1.477  26.239   6.865  1.00 84.24 LIG-0.35  N 
ATOM     16 H    ALA E   9       0.723  26.644   6.777  1.00 84.24 LIG 0.16  HD
ATOM     17  C   ALA E   8       2.607  26.855   7.184  1.00 61.40 LIG 0.26  C 
ATOM     18 O    ALA E   8       3.656  26.251   7.398  1.00 66.21 LIG-0.27  OA
BRANCH 17 19
ATOM     19  CA  ALA E   8       2.538  28.375   7.305  1.00 67.03 LIG 0.40  C 
ATOM     20  N   ALA E   8       2.706  28.798   8.727  1.00 60.26 LIG 0.61  N 
ATOM     21  CB  ALA E   8       3.595  29.033   6.426  1.00 64.64 LIG 0.06  C 
ENDBRANCH 17 19
ENDBRANCH 13 15
ENDBRANCH 10 13
ENDBRANCH 7 9
ENDBRANCH 4 7
ENDBRANCH 1 3
BRANCH 1 22
ATOM     22  C   ALA E  11       0.258  20.368   3.270  1.00 81.78 LIG 0.24  C 
ATOM     23  N   ALA E  12      -0.370  21.542   3.249  1.00 82.91 LIG-0.35  N 
ATOM     24 H    ALA E  12       0.006  22.296   3.074  1.00 82.91 LIG 0.16  HD
ATOM     25 O    ALA E  11      -0.356  19.299   3.377  1.00 89.30 LIG-0.27  OA
BRANCH 23 26
ATOM     26  CA  ALA E  12      -1.797  21.615   3.533  1.00 61.10 LIG 0.17  C 
ATOM     27  CB  ALA E  12      -2.053  21.571   5.047  1.00 65.27 LIG 0.04  C 
BRANCH 26 28
ATOM     28  C   ALA E  12      -2.397  22.875   2.929  1.00 54.59 LIG 0.24  C 
ATOM     29  N   ALA E  13      -1.509  23.721   2.405  1.00 64.78 LIG-0.35  N 
ATOM     30 H    ALA E  13      -0.667  23.554   2.346  1.00 64.78 LIG 0.16  HD
ATOM     31 O    ALA E  12      -3.616  23.058   2.903  1.00 69.11 LIG-0.27  OA
BRANCH 29 32
ATOM     32  CA  ALA E  13      -1.898  25.019   1.880  1.00 54.23 LIG 0.17  C 
ATOM     33  CB  ALA E  13      -2.981  24.848   0.814  1.00 56.27 LIG 0.04  C 
BRANCH 32 34
ATOM     34  C   ALA E  13      -2.432  25.944   2.959  1.00 65.29 LIG 0.24  C 
ATOM     35  N   ALA E  14      -3.455  25.468   3.659  1.00 85.74 LIG-0.35  N 
ATOM     36 H    ALA E  14      -3.825  24.709   3.500  1.00 85.74 LIG 0.16  HD
ATOM     37 O    ALA E  13      -1.898  27.031   3.194  1.00 75.52 LIG-0.27  OA
BRANCH 35 38
ATOM     38  CA  ALA E  14      -4.049  26.194   4.767  1.00 94.46 LIG 0.16  C 
ATOM     39  CB  ALA E  14      -5.421  26.700   4.381  1.00106.12 LIG 0.04  C 
BRANCH 38 40
ATOM     40  C   ALA E  14      -4.136  25.301   5.999  1.00 99.07 LIG 0.22  C 
ATOM     41 O    ALA E  14      -3.620  24.183   6.005  1.00120.33 LIG-0.29  OA
ENDBRANCH 38 40
ENDBRANCH 35 38
ENDBRANCH 32 34
ENDBRANCH 29 32
ENDBRANCH 26 28
ENDBRANCH 23 26
ENDBRANCH 1 22
TORSDOF 13
ENDMDL
MODEL 126
USER: ADFR SOLUTION from run 179
USER: SCORE 5.003176 LL:  -2.858 LR:  -3.869 RR:   0.000 FEB:   0.009
USER: RMSD 5.332789
USER: SEED 178
USER: STATUS no improvement in best in 84 clusters for 5 generations
USER: GENES 15
USER: genes 0 Translation |==|  0.63872 0.34864 0.56824
USER: genes 1 Rotation |==|  0.64394 0.53722 0.44790 0.97453
USER: genes 2 Torsion [CB]-CA--N-[C] |==|  0.15070
USER: genes 3 Torsion [N]-C--CA-[N] |==|  0.28570
USER: genes 4 Torsion [C]-CA--N-[C] |==|  0.83817
USER: genes 5 Torsion [N]-C--CA-[N] |==|  0.95209
USER: genes 6 Torsion [C]-CA--N-[C] |==|  0.81062
USER: genes 7 Torsion [N]-C--CA-[N] |==|  0.78398
USER: genes 8 Torsion [N]-CA--C-[N] |==|  0.62475
USER: genes 9 Torsion [C]-N--CA-[CB] |==|  0.18333
USER: genes 10 Torsion [N]-CA--C-[N] |==|  0.08665
USER: genes 11 Torsion [C]-N--CA-[CB] |==|  0.16962
USER: genes 12 Torsion [N]-CA--C-[N] |==|  0.08396
USER: genes 13 Torsion [C]-N--CA-[C] |==|  0.55312
USER: genes 14 Torsion [N]-CA--C-[O] |==|  0.98102
ROOT
ATOM      1  CA  ALA E  11       1.901  20.905   2.422  1.00 85.35 LIG 0.17  C 
ATOM      2  CB  ALA E  11       1.259  20.803   3.807  1.00 80.46 LIG 0.04  C 
ENDROOT
BRANCH 1 3
ATOM      3  N   ALA E  11       3.032  21.825   2.460  1.00 87.15 LIG-0.35  N 
ATOM      4  C   ALA E  10       4.017  21.649   3.345  1.00 62.15 LIG 0.24  C 
ATOM      5 O    ALA E  10       4.126  20.620   4.014  1.00 65.72 LIG-0.27  OA
ATOM      6 H    ALA E  11       3.003  22.461   1.883  1.00 87.15 LIG 0.16  HD
BRANCH 4 7
ATOM      7  CA  ALA E  10       5.028  22.778   3.507  1.00 66.45 LIG 0.17  C 
ATOM      8  CB  ALA E  10       6.450  22.219   3.530  1.00 58.63 LIG 0.04  C 
BRANCH 7 9
ATOM      9  N   ALA E  10       4.786  23.557   4.712  1.00 75.43 LIG-0.35  N 
ATOM     10  C   ALA E   9       3.636  24.183   4.952  1.00 82.21 LIG 0.24  C 
ATOM     11 O    ALA E   9       2.686  24.189   4.162  1.00 73.75 LIG-0.27  OA
ATOM     12 H    ALA E  10       5.455  23.575   5.254  1.00 75.43 LIG 0.16  HD
BRANCH 10 13
ATOM     13  CA  ALA E   9       3.550  24.941   6.270  1.00 87.65 LIG 0.17  C 
ATOM     14  CB  ALA E   9       3.656  26.448   6.044  1.00 72.21 LIG 0.04  C 
BRANCH 13 15
ATOM     15  N   ALA E   9       4.616  24.456   7.137  1.00 84.24 LIG-0.35  N 
ATOM     16 H    ALA E   9       5.234  25.034   7.291  1.00 84.24 LIG 0.16  HD
ATOM     17  C   ALA E   8       4.618  23.228   7.637  1.00 61.40 LIG 0.26  C 
ATOM     18 O    ALA E   8       3.682  22.447   7.485  1.00 66.21 LIG-0.27  OA
BRANCH 17 19
ATOM     19  CA  ALA E   8       5.845  22.833   8.453  1.00 67.03 LIG 0.40  C 
ATOM     20  N   ALA E   8       6.992  22.504   7.555  1.00 60.26 LIG 0.61  N 
ATOM     21  CB  ALA E   8       6.230  23.948   9.419  1.00 64.64 LIG 0.06  C 
ENDBRANCH 17 19
ENDBRANCH 13 15
ENDBRANCH 10 13
ENDBRANCH 7 9
ENDBRANCH 4 7
ENDBRANCH 1 3
BRANCH 1 22
ATOM     22  C   ALA E  11       0.865  21.335   1.391  1.00 81.78 LIG 0.24  C 
ATOM     23  N   ALA E  12      -0.415  21.303   1.756  1.00 82.91 LIG-0.35  N 
ATOM     24 H    ALA E  12      -0.693  21.165   2.558  1.00 82.91 LIG 0.16  HD
ATOM     25 O    ALA E  11       1.214  21.687   0.258  1.00 89.30 LIG-0.27  OA
BRANCH 23 26
ATOM     26  CA  ALA E  12      -1.464  21.512   0.767  1.00 61.10 LIG 0.17  C 
ATOM     27  CB  ALA E  12      -1.487  20.364  -0.254  1.00 65.27 LIG 0.04  C 
BRANCH 26 28
ATOM     28  C   ALA E  12      -2.818  21.645   1.446  1.00 54.59 LIG 0.24  C 
ATOM     29  N   ALA E  13      -2.782  22.190   2.662  1.00 64.78 LIG-0.35  N 
ATOM     30 H    ALA E  13      -2.068  22.506   3.023  1.00 64.78 LIG 0.16  HD
ATOM     31 O    ALA E  12      -3.859  21.304   0.878  1.00 69.11 LIG-0.27  OA
BRANCH 29 32
ATOM     32  CA  ALA E  13      -3.969  22.297   3.495  1.00 54.23 LIG 0.17  C 
ATOM     33  CB  ALA E  13      -4.525  20.904   3.793  1.00 56.27 LIG 0.04  C 
BRANCH 32 34
ATOM     34  C   ALA E  13      -3.688  22.992   4.816  1.00 65.29 LIG 0.24  C 
ATOM     35  N   ALA E  14      -2.718  23.898   4.784  1.00 85.74 LIG-0.35  N 
ATOM     36 H    ALA E  14      -2.247  24.064   4.085  1.00 85.74 LIG 0.16  HD
ATOM     37 O    ALA E  13      -4.368  22.761   5.819  1.00 75.52 LIG-0.27  OA
BRANCH 35 38
ATOM     38  CA  ALA E  14      -2.359  24.699   5.941  1.00 94.46 LIG 0.16  C 
ATOM     39  CB  ALA E  14      -1.548  23.874   6.914  1.00106.12 LIG 0.04  C 
BRANCH 38 40
ATOM     40  C   ALA E  14      -1.579  25.936   5.508  1.00 99.07 LIG 0.22  C 
ATOM     41 O    ALA E  14      -1.227  26.080   4.337  1.00120.33 LIG-0.29  OA
ENDBRANCH 38 40
ENDBRANCH 35 38
ENDBRANCH 32 34
ENDBRANCH 29 32
ENDBRANCH 26 28
ENDBRANCH 23 26
ENDBRANCH 1 22
TORSDOF 13
ENDMDL
MODEL 127
USER: ADFR SOLUTION from run 20
USER: SCORE 4.914818 LL:  -2.464 LR:  -3.856 RR:   0.000 FEB:   0.022
USER: RMSD 4.441519
USER: SEED 19
USER: STATUS searching
USER: GENES 15
USER: genes 0 Translation |==|  0.56992 0.25047 0.57015
USER: genes 1 Rotation |==|  0.70577 0.56724 0.57971 0.94360
USER: genes 2 Torsion [CB]-CA--N-[C] |==|  0.21649
USER: genes 3 Torsion [N]-C--CA-[N] |==|  0.52217
USER: genes 4 Torsion [C]-CA--N-[C] |==|  0.61667
USER: genes 5 Torsion [N]-C--CA-[N] |==|  0.19032
USER: genes 6 Torsion [C]-CA--N-[C] |==|  0.77901
USER: genes 7 Torsion [N]-C--CA-[N] |==|  0.54691
USER: genes 8 Torsion [N]-CA--C-[N] |==|  0.05822
USER: genes 9 Torsion [C]-N--CA-[CB] |==|  0.84365
USER: genes 10 Torsion [N]-CA--C-[N] |==|  0.39863
USER: genes 11 Torsion [C]-N--CA-[CB] |==|  0.51667
USER: genes 12 Torsion [N]-CA--C-[N] |==|  0.43360
USER: genes 13 Torsion [C]-N--CA-[C] |==|  0.75554
USER: genes 14 Torsion [N]-CA--C-[O] |==|  0.99291
ROOT
ATOM      1  CA  ALA E  11       0.353  19.137   2.457  1.00 85.35 LIG 0.17  C 
ATOM      2  CB  ALA E  11      -0.116  18.307   3.652  1.00 80.46 LIG 0.04  C 
ENDROOT
BRANCH 1 3
ATOM      3  N   ALA E  11       0.890  20.415   2.913  1.00 87.15 LIG-0.35  N 
ATOM      4  C   ALA E  10       2.118  20.484   3.435  1.00 62.15 LIG 0.24  C 
ATOM      5 O    ALA E  10       2.915  19.547   3.371  1.00 65.72 LIG-0.27  OA
ATOM      6 H    ALA E  11       0.362  21.087   2.817  1.00 87.15 LIG 0.16  HD
BRANCH 4 7
ATOM      7  CA  ALA E  10       2.518  21.784   4.124  1.00 66.45 LIG 0.17  C 
ATOM      8  CB  ALA E  10       2.199  22.980   3.228  1.00 58.63 LIG 0.04  C 
BRANCH 7 9
ATOM      9  N   ALA E  10       3.928  21.798   4.482  1.00 75.43 LIG-0.35  N 
ATOM     10  C   ALA E   9       4.377  22.264   5.645  1.00 82.21 LIG 0.24  C 
ATOM     11 O    ALA E   9       3.643  22.755   6.511  1.00 73.75 LIG-0.27  OA
ATOM     12 H    ALA E  10       4.444  21.479   3.872  1.00 75.43 LIG 0.16  HD
BRANCH 10 13
ATOM     13  CA  ALA E   9       5.883  22.191   5.860  1.00 87.65 LIG 0.17  C 
ATOM     14  CB  ALA E   9       6.245  22.496   7.312  1.00 72.21 LIG 0.04  C 
BRANCH 13 15
ATOM     15  N   ALA E   9       6.512  23.134   4.944  1.00 84.24 LIG-0.35  N 
ATOM     16 H    ALA E   9       6.742  23.878   5.308  1.00 84.24 LIG 0.16  HD
ATOM     17  C   ALA E   8       6.705  22.854   3.662  1.00 61.40 LIG 0.26  C 
ATOM     18 O    ALA E   8       6.457  21.752   3.178  1.00 66.21 LIG-0.27  OA
BRANCH 17 19
ATOM     19  CA  ALA E   8       7.292  23.973   2.807  1.00 67.03 LIG 0.40  C 
ATOM     20  N   ALA E   8       7.084  23.692   1.355  1.00 60.26 LIG 0.61  N 
ATOM     21  CB  ALA E   8       6.675  25.316   3.182  1.00 64.64 LIG 0.06  C 
ENDBRANCH 17 19
ENDBRANCH 13 15
ENDBRANCH 10 13
ENDBRANCH 7 9
ENDBRANCH 4 7
ENDBRANCH 1 3
BRANCH 1 22
ATOM     22  C   ALA E  11      -0.791  19.333   1.469  1.00 81.78 LIG 0.24  C 
ATOM     23  N   ALA E  12      -0.866  20.505   0.840  1.00 82.91 LIG-0.35  N 
ATOM     24 H    ALA E  12      -0.259  21.114   0.866  1.00 82.91 LIG 0.16  HD
ATOM     25 O    ALA E  11      -1.618  18.434   1.278  1.00 89.30 LIG-0.27  OA
BRANCH 23 26
ATOM     26  CA  ALA E  12      -2.035  20.831   0.036  1.00 61.10 LIG 0.17  C 
ATOM     27  CB  ALA E  12      -2.268  19.765  -1.045  1.00 65.27 LIG 0.04  C 
BRANCH 26 28
ATOM     28  C   ALA E  12      -3.266  20.973   0.917  1.00 54.59 LIG 0.24  C 
ATOM     29  N   ALA E  13      -4.118  21.925   0.538  1.00 64.78 LIG-0.35  N 
ATOM     30 H    ALA E  13      -4.028  22.388  -0.181  1.00 64.78 LIG 0.16  HD
ATOM     31 O    ALA E  12      -3.457  20.226   1.880  1.00 69.11 LIG-0.27  OA
BRANCH 29 32
ATOM     32  CA  ALA E  13      -5.293  22.266   1.324  1.00 54.23 LIG 0.17  C 
ATOM     33  CB  ALA E  13      -6.150  23.282   0.567  1.00 56.27 LIG 0.04  C 
BRANCH 32 34
ATOM     34  C   ALA E  13      -6.152  21.055   1.637  1.00 65.29 LIG 0.24  C 
ATOM     35  N   ALA E  14      -6.924  21.169   2.712  1.00 85.74 LIG-0.35  N 
ATOM     36 H    ALA E  14      -6.921  21.858   3.226  1.00 85.74 LIG 0.16  HD
ATOM     37 O    ALA E  13      -6.164  20.068   0.896  1.00 75.52 LIG-0.27  OA
BRANCH 35 38
ATOM     38  CA  ALA E  14      -7.852  20.131   3.122  1.00 94.46 LIG 0.16  C 
ATOM     39  CB  ALA E  14      -8.016  20.144   4.624  1.00106.12 LIG 0.04  C 
BRANCH 38 40
ATOM     40  C   ALA E  14      -9.200  20.323   2.435  1.00 99.07 LIG 0.22  C 
ATOM     41 O    ALA E  14      -9.397  21.285   1.692  1.00120.33 LIG-0.29  OA
ENDBRANCH 38 40
ENDBRANCH 35 38
ENDBRANCH 32 34
ENDBRANCH 29 32
ENDBRANCH 26 28
ENDBRANCH 23 26
ENDBRANCH 1 22
TORSDOF 13
ENDMDL
MODEL 128
USER: ADFR SOLUTION from run 74
USER: SCORE 4.082367 LL:  -2.562 LR:  -3.856 RR:   0.000 FEB:   0.022
USER: RMSD 4.206805
USER: SEED 73
USER: STATUS no improvement in best in 41 clusters for 5 generations
USER: GENES 15
USER: genes 0 Translation |==|  0.63246 0.33589 0.62531
USER: genes 1 Rotation |==|  0.42884 0.31392 0.52473 0.95793
USER: genes 2 Torsion [CB]-CA--N-[C] |==|  0.42821
USER: genes 3 Torsion [N]-C--CA-[N] |==|  0.10388
USER: genes 4 Torsion [C]-CA--N-[C] |==|  0.17935
USER: genes 5 Torsion [N]-C--CA-[N] |==|  0.01985
USER: genes 6 Torsion [C]-CA--N-[C] |==|  0.76967
USER: genes 7 Torsion [N]-C--CA-[N] |==|  0.42321
USER: genes 8 Torsion [N]-CA--C-[N] |==|  0.63331
USER: genes 9 Torsion [C]-N--CA-[CB] |==|  0.18246
USER: genes 10 Torsion [N]-CA--C-[N] |==|  0.09634
USER: genes 11 Torsion [C]-N--CA-[CB] |==|  0.84166
USER: genes 12 Torsion [N]-CA--C-[N] |==|  0.40078
USER: genes 13 Torsion [C]-N--CA-[C] |==|  0.56042
USER: genes 14 Torsion [N]-CA--C-[O] |==|  0.97022
ROOT
ATOM      1  CA  ALA E  11       1.760  20.675   3.450  1.00 85.35 LIG 0.17  C 
ATOM      2  CB  ALA E  11       0.337  21.233   3.493  1.00 80.46 LIG 0.04  C 
ENDROOT
BRANCH 1 3
ATOM      3  N   ALA E  11       2.728  21.765   3.502  1.00 87.15 LIG-0.35  N 
ATOM      4  C   ALA E  10       3.957  21.556   3.982  1.00 62.15 LIG 0.24  C 
ATOM      5 O    ALA E  10       4.393  20.426   4.206  1.00 65.72 LIG-0.27  OA
ATOM      6 H    ALA E  11       2.442  22.520   3.205  1.00 87.15 LIG 0.16  HD
BRANCH 4 7
ATOM      7  CA  ALA E  10       4.826  22.779   4.249  1.00 66.45 LIG 0.17  C 
ATOM      8  CB  ALA E  10       5.950  22.429   5.223  1.00 58.63 LIG 0.04  C 
BRANCH 7 9
ATOM      9  N   ALA E  10       4.051  23.894   4.772  1.00 75.43 LIG-0.35  N 
ATOM     10  C   ALA E   9       3.434  23.860   5.951  1.00 82.21 LIG 0.24  C 
ATOM     11 O    ALA E   9       3.435  22.870   6.691  1.00 73.75 LIG-0.27  OA
ATOM     12 H    ALA E  10       4.029  24.577   4.248  1.00 75.43 LIG 0.16  HD
BRANCH 10 13
ATOM     13  CA  ALA E   9       2.679  25.121   6.348  1.00 87.65 LIG 0.17  C 
ATOM     14  CB  ALA E   9       1.253  24.791   6.785  1.00 72.21 LIG 0.04  C 
BRANCH 13 15
ATOM     15  N   ALA E   9       2.690  26.028   5.208  1.00 84.24 LIG-0.35  N 
ATOM     16 H    ALA E   9       1.979  25.995   4.725  1.00 84.24 LIG 0.16  HD
ATOM     17  C   ALA E   8       3.715  26.828   4.949  1.00 61.40 LIG 0.26  C 
ATOM     18 O    ALA E   8       4.683  26.931   5.699  1.00 66.21 LIG-0.27  OA
BRANCH 17 19
ATOM     19  CA  ALA E   8       3.622  27.654   3.670  1.00 67.03 LIG 0.40  C 
ATOM     20  N   ALA E   8       4.406  28.919   3.801  1.00 60.26 LIG 0.61  N 
ATOM     21  CB  ALA E   8       4.112  26.848   2.472  1.00 64.64 LIG 0.06  C 
ENDBRANCH 17 19
ENDBRANCH 13 15
ENDBRANCH 10 13
ENDBRANCH 7 9
ENDBRANCH 4 7
ENDBRANCH 1 3
BRANCH 1 22
ATOM     22  C   ALA E  11       1.953  19.816   2.206  1.00 81.78 LIG 0.24  C 
ATOM     23  N   ALA E  12       0.870  19.525   1.486  1.00 82.91 LIG-0.35  N 
ATOM     24 H    ALA E  12       0.093  19.874   1.607  1.00 82.91 LIG 0.16  HD
ATOM     25 O    ALA E  11       3.076  19.401   1.895  1.00 89.30 LIG-0.27  OA
BRANCH 23 26
ATOM     26  CA  ALA E  12       0.949  18.554   0.403  1.00 61.10 LIG 0.17  C 
ATOM     27  CB  ALA E  12       1.254  17.152   0.950  1.00 65.27 LIG 0.04  C 
BRANCH 26 28
ATOM     28  C   ALA E  12      -0.342  18.543  -0.398  1.00 54.59 LIG 0.24  C 
ATOM     29  N   ALA E  13      -0.937  19.731  -0.516  1.00 64.78 LIG-0.35  N 
ATOM     30 H    ALA E  13      -0.598  20.466  -0.224  1.00 64.78 LIG 0.16  HD
ATOM     31 O    ALA E  12      -0.766  17.510  -0.922  1.00 69.11 LIG-0.27  OA
BRANCH 29 32
ATOM     32  CA  ALA E  13      -2.232  19.885  -1.159  1.00 54.23 LIG 0.17  C 
ATOM     33  CB  ALA E  13      -2.174  19.339  -2.586  1.00 56.27 LIG 0.04  C 
BRANCH 32 34
ATOM     34  C   ALA E  13      -3.338  19.160  -0.415  1.00 65.29 LIG 0.24  C 
ATOM     35  N   ALA E  14      -4.518  19.769  -0.420  1.00 85.74 LIG-0.35  N 
ATOM     36 H    ALA E  14      -4.654  20.537  -0.781  1.00 85.74 LIG 0.16  HD
ATOM     37 O    ALA E  13      -3.149  18.054   0.098  1.00 75.52 LIG-0.27  OA
BRANCH 35 38
ATOM     38  CA  ALA E  14      -5.701  19.188   0.191  1.00 94.46 LIG 0.16  C 
ATOM     39  CB  ALA E  14      -5.668  19.396   1.688  1.00106.12 LIG 0.04  C 
BRANCH 38 40
ATOM     40  C   ALA E  14      -6.962  19.801  -0.407  1.00 99.07 LIG 0.22  C 
ATOM     41 O    ALA E  14      -6.897  20.793  -1.133  1.00120.33 LIG-0.29  OA
ENDBRANCH 38 40
ENDBRANCH 35 38
ENDBRANCH 32 34
ENDBRANCH 29 32
ENDBRANCH 26 28
ENDBRANCH 23 26
ENDBRANCH 1 22
TORSDOF 13
ENDMDL
MODEL 129
USER: ADFR SOLUTION from run 121
USER: SCORE 4.555378 LL:  -2.994 LR:  -3.859 RR:   0.000 FEB:   0.019
USER: RMSD 4.209557
USER: SEED 120
USER: STATUS no improvement in best in 42 clusters for 5 generations
USER: GENES 15
USER: genes 0 Translation |==|  0.63783 0.32717 0.61519
USER: genes 1 Rotation |==|  0.81997 0.73297 0.58298 0.79404
USER: genes 2 Torsion [CB]-CA--N-[C] |==|  0.13155
USER: genes 3 Torsion [N]-C--CA-[N] |==|  0.04092
USER: genes 4 Torsion [C]-CA--N-[C] |==|  0.75259
USER: genes 5 Torsion [N]-C--CA-[N] |==|  0.38939
USER: genes 6 Torsion [C]-CA--N-[C] |==|  0.84799
USER: genes 7 Torsion [N]-C--CA-[N] |==|  0.32519
USER: genes 8 Torsion [N]-CA--C-[N] |==|  0.11490
USER: genes 9 Torsion [C]-N--CA-[CB] |==|  0.21034
USER: genes 10 Torsion [N]-CA--C-[N] |==|  0.36154
USER: genes 11 Torsion [C]-N--CA-[CB] |==|  0.83863
USER: genes 12 Torsion [N]-CA--C-[N] |==|  0.97683
USER: genes 13 Torsion [C]-N--CA-[C] |==|  0.54262
USER: genes 14 Torsion [N]-CA--C-[O] |==|  0.97192
ROOT
ATOM      1  CA  ALA E  11       1.881  20.518   3.267  1.00 85.35 LIG 0.17  C 
ATOM      2  CB  ALA E  11       2.500  19.196   3.726  1.00 80.46 LIG 0.04  C 
ENDROOT
BRANCH 1 3
ATOM      3  N   ALA E  11       2.481  21.632   3.994  1.00 87.15 LIG-0.35  N 
ATOM      4  C   ALA E  10       3.808  21.718   4.123  1.00 62.15 LIG 0.24  C 
ATOM      5 O    ALA E  10       4.580  21.004   3.482  1.00 65.72 LIG-0.27  OA
ATOM      6 H    ALA E  11       1.921  22.200   4.316  1.00 87.15 LIG 0.16  HD
BRANCH 4 7
ATOM      7  CA  ALA E  10       4.354  22.751   5.103  1.00 66.45 LIG 0.17  C 
ATOM      8  CB  ALA E  10       5.501  22.155   5.917  1.00 58.63 LIG 0.04  C 
BRANCH 7 9
ATOM      9  N   ALA E  10       3.322  23.250   5.999  1.00 75.43 LIG-0.35  N 
ATOM     10  C   ALA E   9       2.559  24.303   5.711  1.00 82.21 LIG 0.24  C 
ATOM     11 O    ALA E   9       2.679  24.969   4.677  1.00 73.75 LIG-0.27  OA
ATOM     12 H    ALA E  10       3.251  22.803   6.730  1.00 75.43 LIG 0.16  HD
BRANCH 10 13
ATOM     13  CA  ALA E   9       1.518  24.681   6.756  1.00 87.65 LIG 0.17  C 
ATOM     14  CB  ALA E   9       0.149  24.105   6.401  1.00 72.21 LIG 0.04  C 
BRANCH 13 15
ATOM     15  N   ALA E   9       1.478  26.135   6.843  1.00 84.24 LIG-0.35  N 
ATOM     16 H    ALA E   9       0.696  26.473   6.728  1.00 84.24 LIG 0.16  HD
ATOM     17  C   ALA E   8       2.563  26.861   7.080  1.00 61.40 LIG 0.26  C 
ATOM     18 O    ALA E   8       3.655  26.358   7.336  1.00 66.21 LIG-0.27  OA
BRANCH 17 19
ATOM     19  CA  ALA E   8       2.382  28.375   7.052  1.00 67.03 LIG 0.40  C 
ATOM     20  N   ALA E   8       2.677  28.966   8.392  1.00 60.26 LIG 0.61  N 
ATOM     21  CB  ALA E   8       3.274  29.003   5.987  1.00 64.64 LIG 0.06  C 
ENDBRANCH 17 19
ENDBRANCH 13 15
ENDBRANCH 10 13
ENDBRANCH 7 9
ENDBRANCH 4 7
ENDBRANCH 1 3
BRANCH 1 22
ATOM     22  C   ALA E  11       0.369  20.483   3.448  1.00 81.78 LIG 0.24  C 
ATOM     23  N   ALA E  12      -0.282  21.644   3.410  1.00 82.91 LIG-0.35  N 
ATOM     24 H    ALA E  12       0.070  22.396   3.181  1.00 82.91 LIG 0.16  HD
ATOM     25 O    ALA E  11      -0.218  19.410   3.636  1.00 89.30 LIG-0.27  OA
BRANCH 23 26
ATOM     26  CA  ALA E  12      -1.693  21.706   3.768  1.00 61.10 LIG 0.17  C 
ATOM     27  CB  ALA E  12      -1.872  21.620   5.291  1.00 65.27 LIG 0.04  C 
BRANCH 26 28
ATOM     28  C   ALA E  12      -2.324  22.980   3.230  1.00 54.59 LIG 0.24  C 
ATOM     29  N   ALA E  13      -3.460  22.800   2.556  1.00 64.78 LIG-0.35  N 
ATOM     30 H    ALA E  13      -3.853  22.039   2.478  1.00 64.78 LIG 0.16  HD
ATOM     31 O    ALA E  12      -1.824  24.087   3.446  1.00 69.11 LIG-0.27  OA
BRANCH 29 32
ATOM     32  CA  ALA E  13      -4.142  23.895   1.885  1.00 54.23 LIG 0.17  C 
ATOM     33  CB  ALA E  13      -4.483  24.993   2.893  1.00 56.27 LIG 0.04  C 
BRANCH 32 34
ATOM     34  C   ALA E  13      -3.303  24.507   0.778  1.00 65.29 LIG 0.24  C 
ATOM     35  N   ALA E  14      -2.048  24.078   0.714  1.00 85.74 LIG-0.35  N 
ATOM     36 H    ALA E  14      -1.708  23.522   1.274  1.00 85.74 LIG 0.16  HD
ATOM     37 O    ALA E  13      -3.790  25.299  -0.033  1.00 75.52 LIG-0.27  OA
BRANCH 35 38
ATOM     38  CA  ALA E  14      -1.124  24.512  -0.319  1.00 94.46 LIG 0.16  C 
ATOM     39  CB  ALA E  14      -0.696  25.940  -0.067  1.00106.12 LIG 0.04  C 
BRANCH 38 40
ATOM     40  C   ALA E  14       0.089  23.590  -0.368  1.00 99.07 LIG 0.22  C 
ATOM     41 O    ALA E  14       0.279  22.752   0.514  1.00120.33 LIG-0.29  OA
ENDBRANCH 38 40
ENDBRANCH 35 38
ENDBRANCH 32 34
ENDBRANCH 29 32
ENDBRANCH 26 28
ENDBRANCH 23 26
ENDBRANCH 1 22
TORSDOF 13
ENDMDL
MODEL 130
USER: ADFR SOLUTION from run 20
USER: SCORE 5.237873 LL:  -2.482 LR:  -3.849 RR:   0.000 FEB:   0.029
USER: RMSD 4.347133
USER: SEED 19
USER: STATUS searching
USER: GENES 15
USER: genes 0 Translation |==|  0.56935 0.25372 0.56819
USER: genes 1 Rotation |==|  0.76017 0.67176 0.58426 0.88172
USER: genes 2 Torsion [CB]-CA--N-[C] |==|  0.18422
USER: genes 3 Torsion [N]-C--CA-[N] |==|  0.46949
USER: genes 4 Torsion [C]-CA--N-[C] |==|  0.62399
USER: genes 5 Torsion [N]-C--CA-[N] |==|  0.18260
USER: genes 6 Torsion [C]-CA--N-[C] |==|  0.78154
USER: genes 7 Torsion [N]-C--CA-[N] |==|  0.41248
USER: genes 8 Torsion [N]-CA--C-[N] |==|  0.10253
USER: genes 9 Torsion [C]-N--CA-[CB] |==|  0.84438
USER: genes 10 Torsion [N]-CA--C-[N] |==|  0.39079
USER: genes 11 Torsion [C]-N--CA-[CB] |==|  0.17199
USER: genes 12 Torsion [N]-CA--C-[N] |==|  0.08575
USER: genes 13 Torsion [C]-N--CA-[C] |==|  0.56511
USER: genes 14 Torsion [N]-CA--C-[O] |==|  0.99131
ROOT
ATOM      1  CA  ALA E  11       0.340  19.196   2.421  1.00 85.35 LIG 0.17  C 
ATOM      2  CB  ALA E  11       0.566  18.075   3.438  1.00 80.46 LIG 0.04  C 
ENDROOT
BRANCH 1 3
ATOM      3  N   ALA E  11       0.836  20.461   2.951  1.00 87.15 LIG-0.35  N 
ATOM      4  C   ALA E  10       2.143  20.640   3.161  1.00 62.15 LIG 0.24  C 
ATOM      5 O    ALA E  10       2.992  19.853   2.740  1.00 65.72 LIG-0.27  OA
ATOM      6 H    ALA E  11       0.232  21.053   3.106  1.00 87.15 LIG 0.16  HD
BRANCH 4 7
ATOM      7  CA  ALA E  10       2.567  21.874   3.950  1.00 66.45 LIG 0.17  C 
ATOM      8  CB  ALA E  10       2.296  23.141   3.140  1.00 58.63 LIG 0.04  C 
BRANCH 7 9
ATOM      9  N   ALA E  10       3.971  21.822   4.329  1.00 75.43 LIG-0.35  N 
ATOM     10  C   ALA E   9       4.406  22.139   5.546  1.00 82.21 LIG 0.24  C 
ATOM     11 O    ALA E   9       3.666  22.538   6.452  1.00 73.75 LIG-0.27  OA
ATOM     12 H    ALA E  10       4.493  21.568   3.693  1.00 75.43 LIG 0.16  HD
BRANCH 10 13
ATOM     13  CA  ALA E   9       5.907  22.015   5.774  1.00 87.65 LIG 0.17  C 
ATOM     14  CB  ALA E   9       6.256  22.210   7.248  1.00 72.21 LIG 0.04  C 
BRANCH 13 15
ATOM     15  N   ALA E   9       6.571  23.004   4.934  1.00 84.24 LIG-0.35  N 
ATOM     16 H    ALA E   9       6.824  23.710   5.356  1.00 84.24 LIG 0.16  HD
ATOM     17  C   ALA E   8       6.761  22.818   3.635  1.00 61.40 LIG 0.26  C 
ATOM     18 O    ALA E   8       6.478  21.765   3.067  1.00 66.21 LIG-0.27  OA
BRANCH 17 19
ATOM     19  CA  ALA E   8       7.387  23.980   2.870  1.00 67.03 LIG 0.40  C 
ATOM     20  N   ALA E   8       8.217  23.476   1.735  1.00 60.26 LIG 0.61  N 
ATOM     21  CB  ALA E   8       6.311  24.931   2.360  1.00 64.64 LIG 0.06  C 
ENDBRANCH 17 19
ENDBRANCH 13 15
ENDBRANCH 10 13
ENDBRANCH 7 9
ENDBRANCH 4 7
ENDBRANCH 1 3
BRANCH 1 22
ATOM     22  C   ALA E  11      -1.136  19.284   2.054  1.00 81.78 LIG 0.24  C 
ATOM     23  N   ALA E  12      -1.571  20.428   1.528  1.00 82.91 LIG-0.35  N 
ATOM     24 H    ALA E  12      -1.064  21.077   1.279  1.00 82.91 LIG 0.16  HD
ATOM     25 O    ALA E  11      -1.893  18.327   2.253  1.00 89.30 LIG-0.27  OA
BRANCH 23 26
ATOM     26  CA  ALA E  12      -2.997  20.651   1.336  1.00 61.10 LIG 0.17  C 
ATOM     27  CB  ALA E  12      -3.612  19.534   0.479  1.00 65.27 LIG 0.04  C 
BRANCH 26 28
ATOM     28  C   ALA E  12      -3.708  20.744   2.677  1.00 54.59 LIG 0.24  C 
ATOM     29  N   ALA E  13      -4.667  21.667   2.738  1.00 64.78 LIG-0.35  N 
ATOM     30 H    ALA E  13      -4.922  22.137   2.064  1.00 64.78 LIG 0.16  HD
ATOM     31 O    ALA E  12      -3.426  19.985   3.608  1.00 69.11 LIG-0.27  OA
BRANCH 29 32
ATOM     32  CA  ALA E  13      -5.376  21.962   3.972  1.00 54.23 LIG 0.17  C 
ATOM     33  CB  ALA E  13      -4.397  22.482   5.026  1.00 56.27 LIG 0.04  C 
BRANCH 32 34
ATOM     34  C   ALA E  13      -6.467  23.001   3.780  1.00 65.29 LIG 0.24  C 
ATOM     35  N   ALA E  14      -7.040  23.006   2.582  1.00 85.74 LIG-0.35  N 
ATOM     36 H    ALA E  14      -6.797  22.491   1.938  1.00 85.74 LIG 0.16  HD
ATOM     37 O    ALA E  13      -6.822  23.737   4.704  1.00 75.52 LIG-0.27  OA
BRANCH 35 38
ATOM     38  CA  ALA E  14      -8.140  23.892   2.245  1.00 94.46 LIG 0.16  C 
ATOM     39  CB  ALA E  14      -7.613  25.264   1.893  1.00106.12 LIG 0.04  C 
BRANCH 38 40
ATOM     40  C   ALA E  14      -8.949  23.316   1.088  1.00 99.07 LIG 0.22  C 
ATOM     41 O    ALA E  14      -8.604  22.271   0.536  1.00120.33 LIG-0.29  OA
ENDBRANCH 38 40
ENDBRANCH 35 38
ENDBRANCH 32 34
ENDBRANCH 29 32
ENDBRANCH 26 28
ENDBRANCH 23 26
ENDBRANCH 1 22
TORSDOF 13
ENDMDL
MODEL 131
USER: ADFR SOLUTION from run 86
USER: SCORE 4.236869 LL:  -2.421 LR:  -3.853 RR:   0.000 FEB:   0.025
USER: RMSD 5.132125
USER: SEED 85
USER: STATUS no improvement in best in 62 clusters for 5 generations
USER: GENES 15
USER: genes 0 Translation |==|  0.69090 0.35146 0.59315
USER: genes 1 Rotation |==|  0.74576 0.55420 0.57710 0.92511
USER: genes 2 Torsion [CB]-CA--N-[C] |==|  0.18259
USER: genes 3 Torsion [N]-C--CA-[N] |==|  0.06623
USER: genes 4 Torsion [C]-CA--N-[C] |==|  0.62044
USER: genes 5 Torsion [N]-C--CA-[N] |==|  0.41753
USER: genes 6 Torsion [C]-CA--N-[C] |==|  0.62659
USER: genes 7 Torsion [N]-C--CA-[N] |==|  0.65796
USER: genes 8 Torsion [N]-CA--C-[N] |==|  0.66667
USER: genes 9 Torsion [C]-N--CA-[CB] |==|  0.17661
USER: genes 10 Torsion [N]-CA--C-[N] |==|  0.11560
USER: genes 11 Torsion [C]-N--CA-[CB] |==|  0.51668
USER: genes 12 Torsion [N]-CA--C-[N] |==|  0.44498
USER: genes 13 Torsion [C]-N--CA-[C] |==|  0.78081
USER: genes 14 Torsion [N]-CA--C-[O] |==|  0.98725
ROOT
ATOM      1  CA  ALA E  11       3.075  20.955   2.871  1.00 85.35 LIG 0.17  C 
ATOM      2  CB  ALA E  11       2.561  19.944   3.897  1.00 80.46 LIG 0.04  C 
ENDROOT
BRANCH 1 3
ATOM      3  N   ALA E  11       3.658  22.108   3.549  1.00 87.15 LIG-0.35  N 
ATOM      4  C   ALA E  10       4.764  21.970   4.285  1.00 62.15 LIG 0.24  C 
ATOM      5 O    ALA E  10       5.447  20.946   4.262  1.00 65.72 LIG-0.27  OA
ATOM      6 H    ALA E  11       3.237  22.849   3.434  1.00 87.15 LIG 0.16  HD
BRANCH 4 7
ATOM      7  CA  ALA E  10       5.172  23.143   5.169  1.00 66.45 LIG 0.17  C 
ATOM      8  CB  ALA E  10       5.831  22.637   6.451  1.00 58.63 LIG 0.04  C 
BRANCH 7 9
ATOM      9  N   ALA E  10       4.039  23.994   5.501  1.00 75.43 LIG-0.35  N 
ATOM     10  C   ALA E   9       4.098  25.324   5.476  1.00 82.21 LIG 0.24  C 
ATOM     11 O    ALA E   9       5.125  25.955   5.202  1.00 73.75 LIG-0.27  OA
ATOM     12 H    ALA E  10       3.329  23.558   5.715  1.00 75.43 LIG 0.16  HD
BRANCH 10 13
ATOM     13  CA  ALA E   9       2.815  26.058   5.838  1.00 87.65 LIG 0.17  C 
ATOM     14  CB  ALA E   9       1.930  26.255   4.609  1.00 72.21 LIG 0.04  C 
BRANCH 13 15
ATOM     15  N   ALA E   9       3.183  27.334   6.439  1.00 84.24 LIG-0.35  N 
ATOM     16 H    ALA E   9       3.798  27.759   6.013  1.00 84.24 LIG 0.16  HD
ATOM     17  C   ALA E   8       2.611  27.787   7.546  1.00 61.40 LIG 0.26  C 
ATOM     18 O    ALA E   8       1.669  27.213   8.089  1.00 66.21 LIG-0.27  OA
BRANCH 17 19
ATOM     19  CA  ALA E   8       3.164  29.094   8.107  1.00 67.03 LIG 0.40  C 
ATOM     20  N   ALA E   8       3.620  28.910   9.517  1.00 60.26 LIG 0.61  N 
ATOM     21  CB  ALA E   8       4.308  29.609   7.241  1.00 64.64 LIG 0.06  C 
ENDBRANCH 17 19
ENDBRANCH 13 15
ENDBRANCH 10 13
ENDBRANCH 7 9
ENDBRANCH 4 7
ENDBRANCH 1 3
BRANCH 1 22
ATOM     22  C   ALA E  11       1.950  21.371   1.931  1.00 81.78 LIG 0.24  C 
ATOM     23  N   ALA E  12       0.739  20.867   2.161  1.00 82.91 LIG-0.35  N 
ATOM     24 H    ALA E  12       0.521  20.415   2.860  1.00 82.91 LIG 0.16  HD
ATOM     25 O    ALA E  11       2.170  22.138   0.986  1.00 89.30 LIG-0.27  OA
BRANCH 23 26
ATOM     26  CA  ALA E  12      -0.333  21.064   1.194  1.00 61.10 LIG 0.17  C 
ATOM     27  CB  ALA E  12       0.004  20.380  -0.140  1.00 65.27 LIG 0.04  C 
BRANCH 26 28
ATOM     28  C   ALA E  12      -1.649  20.538   1.743  1.00 54.59 LIG 0.24  C 
ATOM     29  N   ALA E  13      -1.870  20.818   3.028  1.00 64.78 LIG-0.35  N 
ATOM     30 H    ALA E  13      -1.352  21.311   3.505  1.00 64.78 LIG 0.16  HD
ATOM     31 O    ALA E  12      -2.451  19.935   1.025  1.00 69.11 LIG-0.27  OA
BRANCH 29 32
ATOM     32  CA  ALA E  13      -3.028  20.303   3.741  1.00 54.23 LIG 0.17  C 
ATOM     33  CB  ALA E  13      -3.091  20.911   5.143  1.00 56.27 LIG 0.04  C 
BRANCH 32 34
ATOM     34  C   ALA E  13      -4.332  20.614   3.028  1.00 65.29 LIG 0.24  C 
ATOM     35  N   ALA E  14      -5.363  19.852   3.375  1.00 85.74 LIG-0.35  N 
ATOM     36 H    ALA E  14      -5.305  19.201   3.933  1.00 85.74 LIG 0.16  HD
ATOM     37 O    ALA E  13      -4.421  21.552   2.232  1.00 75.52 LIG-0.27  OA
BRANCH 35 38
ATOM     38  CA  ALA E  14      -6.698  20.050   2.837  1.00 94.46 LIG 0.16  C 
ATOM     39  CB  ALA E  14      -7.510  18.783   2.982  1.00106.12 LIG 0.04  C 
BRANCH 38 40
ATOM     40  C   ALA E  14      -7.387  21.211   3.544  1.00 99.07 LIG 0.22  C 
ATOM     41 O    ALA E  14      -6.847  21.782   4.492  1.00120.33 LIG-0.29  OA
ENDBRANCH 38 40
ENDBRANCH 35 38
ENDBRANCH 32 34
ENDBRANCH 29 32
ENDBRANCH 26 28
ENDBRANCH 23 26
ENDBRANCH 1 22
TORSDOF 13
ENDMDL
MODEL 132
USER: ADFR SOLUTION from run 67
USER: SCORE 4.756414 LL:  -2.277 LR:  -3.849 RR:   0.000 FEB:   0.029
USER: RMSD 5.009657
USER: SEED 66
USER: STATUS searching
USER: GENES 15
USER: genes 0 Translation |==|  0.56941 0.25261 0.56797
USER: genes 1 Rotation |==|  0.77036 0.66311 0.59823 0.87503
USER: genes 2 Torsion [CB]-CA--N-[C] |==|  0.18826
USER: genes 3 Torsion [N]-C--CA-[N] |==|  0.47733
USER: genes 4 Torsion [C]-CA--N-[C] |==|  0.57778
USER: genes 5 Torsion [N]-C--CA-[N] |==|  0.19976
USER: genes 6 Torsion [C]-CA--N-[C] |==|  0.79030
USER: genes 7 Torsion [N]-C--CA-[N] |==|  0.58164
USER: genes 8 Torsion [N]-CA--C-[N] |==|  0.53344
USER: genes 9 Torsion [C]-N--CA-[CB] |==|  0.83730
USER: genes 10 Torsion [N]-CA--C-[N] |==|  0.42081
USER: genes 11 Torsion [C]-N--CA-[CB] |==|  0.84099
USER: genes 12 Torsion [N]-CA--C-[N] |==|  0.39129
USER: genes 13 Torsion [C]-N--CA-[C] |==|  0.54894
USER: genes 14 Torsion [N]-CA--C-[O] |==|  0.03892
ROOT
ATOM      1  CA  ALA E  11       0.342  19.176   2.417  1.00 85.35 LIG 0.17  C 
ATOM      2  CB  ALA E  11       0.547  17.990   3.362  1.00 80.46 LIG 0.04  C 
ENDROOT
BRANCH 1 3
ATOM      3  N   ALA E  11       0.796  20.408   3.053  1.00 87.15 LIG-0.35  N 
ATOM      4  C   ALA E  10       2.094  20.602   3.301  1.00 62.15 LIG 0.24  C 
ATOM      5 O    ALA E  10       2.970  19.871   2.836  1.00 65.72 LIG-0.27  OA
ATOM      6 H    ALA E  11       0.173  20.970   3.243  1.00 87.15 LIG 0.16  HD
BRANCH 4 7
ATOM      7  CA  ALA E  10       2.472  21.780   4.192  1.00 66.45 LIG 0.17  C 
ATOM      8  CB  ALA E  10       2.118  23.099   3.507  1.00 58.63 LIG 0.04  C 
BRANCH 7 9
ATOM      9  N   ALA E  10       3.886  21.769   4.538  1.00 75.43 LIG-0.35  N 
ATOM     10  C   ALA E   9       4.362  22.300   5.661  1.00 82.21 LIG 0.24  C 
ATOM     11 O    ALA E   9       3.655  22.878   6.494  1.00 73.75 LIG-0.27  OA
ATOM     12 H    ALA E  10       4.384  21.388   3.949  1.00 75.43 LIG 0.16  HD
BRANCH 10 13
ATOM     13  CA  ALA E   9       5.866  22.187   5.870  1.00 87.65 LIG 0.17  C 
ATOM     14  CB  ALA E   9       6.244  22.502   7.316  1.00 72.21 LIG 0.04  C 
BRANCH 13 15
ATOM     15  N   ALA E   9       6.517  23.100   4.939  1.00 84.24 LIG-0.35  N 
ATOM     16 H    ALA E   9       6.819  23.818   5.303  1.00 84.24 LIG 0.16  HD
ATOM     17  C   ALA E   8       6.627  22.832   3.645  1.00 61.40 LIG 0.26  C 
ATOM     18 O    ALA E   8       6.274  21.760   3.156  1.00 66.21 LIG-0.27  OA
BRANCH 17 19
ATOM     19  CA  ALA E   8       7.251  23.922   2.779  1.00 67.03 LIG 0.40  C 
ATOM     20  N   ALA E   8       6.712  23.863   1.388  1.00 60.26 LIG 0.61  N 
ATOM     21  CB  ALA E   8       7.005  25.298   3.387  1.00 64.64 LIG 0.06  C 
ENDBRANCH 17 19
ENDBRANCH 13 15
ENDBRANCH 10 13
ENDBRANCH 7 9
ENDBRANCH 4 7
ENDBRANCH 1 3
BRANCH 1 22
ATOM     22  C   ALA E  11      -1.120  19.270   1.998  1.00 81.78 LIG 0.24  C 
ATOM     23  N   ALA E  12      -1.729  18.143   1.633  1.00 82.91 LIG-0.35  N 
ATOM     24 H    ALA E  12      -1.394  17.355   1.720  1.00 82.91 LIG 0.16  HD
ATOM     25 O    ALA E  11      -1.704  20.360   1.990  1.00 89.30 LIG-0.27  OA
BRANCH 23 26
ATOM     26  CA  ALA E  12      -3.057  18.187   1.037  1.00 61.10 LIG 0.17  C 
ATOM     27  CB  ALA E  12      -4.058  18.860   1.988  1.00 65.27 LIG 0.04  C 
BRANCH 26 28
ATOM     28  C   ALA E  12      -3.020  18.915  -0.297  1.00 54.59 LIG 0.24  C 
ATOM     29  N   ALA E  13      -3.947  18.526  -1.172  1.00 64.78 LIG-0.35  N 
ATOM     30 H    ALA E  13      -4.566  17.957  -0.991  1.00 64.78 LIG 0.16  HD
ATOM     31 O    ALA E  12      -2.208  19.819  -0.514  1.00 69.11 LIG-0.27  OA
BRANCH 29 32
ATOM     32  CA  ALA E  13      -3.991  19.042  -2.530  1.00 54.23 LIG 0.17  C 
ATOM     33  CB  ALA E  13      -4.103  20.567  -2.507  1.00 56.27 LIG 0.04  C 
BRANCH 32 34
ATOM     34  C   ALA E  13      -2.757  18.667  -3.332  1.00 65.29 LIG 0.24  C 
ATOM     35  N   ALA E  14      -2.982  18.344  -4.600  1.00 85.74 LIG-0.35  N 
ATOM     36 H    ALA E  14      -3.767  18.308  -4.949  1.00 85.74 LIG 0.16  HD
ATOM     37 O    ALA E  13      -1.628  18.725  -2.838  1.00 75.52 LIG-0.27  OA
BRANCH 35 38
ATOM     38  CA  ALA E  14      -1.912  18.018  -5.526  1.00 94.46 LIG 0.16  C 
ATOM     39  CB  ALA E  14      -1.383  16.630  -5.242  1.00106.12 LIG 0.04  C 
BRANCH 38 40
ATOM     40  C   ALA E  14      -2.406  18.118  -6.964  1.00 99.07 LIG 0.22  C 
ATOM     41 O    ALA E  14      -3.471  18.677  -7.227  1.00120.33 LIG-0.29  OA
ENDBRANCH 38 40
ENDBRANCH 35 38
ENDBRANCH 32 34
ENDBRANCH 29 32
ENDBRANCH 26 28
ENDBRANCH 23 26
ENDBRANCH 1 22
TORSDOF 13
ENDMDL
MODEL 133
USER: ADFR SOLUTION from run 179
USER: SCORE 4.765839 LL:  -2.518 LR:  -3.851 RR:   0.000 FEB:   0.026
USER: RMSD 4.797060
USER: SEED 178
USER: STATUS no improvement in best in 84 clusters for 5 generations
USER: GENES 15
USER: genes 0 Translation |==|  0.63872 0.34864 0.56824
USER: genes 1 Rotation |==|  0.64394 0.53722 0.44790 0.97453
USER: genes 2 Torsion [CB]-CA--N-[C] |==|  0.15070
USER: genes 3 Torsion [N]-C--CA-[N] |==|  0.28570
USER: genes 4 Torsion [C]-CA--N-[C] |==|  0.83817
USER: genes 5 Torsion [N]-C--CA-[N] |==|  0.95209
USER: genes 6 Torsion [C]-CA--N-[C] |==|  0.81062
USER: genes 7 Torsion [N]-C--CA-[N] |==|  0.78398
USER: genes 8 Torsion [N]-CA--C-[N] |==|  0.62475
USER: genes 9 Torsion [C]-N--CA-[CB] |==|  0.50556
USER: genes 10 Torsion [N]-CA--C-[N] |==|  0.43011
USER: genes 11 Torsion [C]-N--CA-[CB] |==|  0.84268
USER: genes 12 Torsion [N]-CA--C-[N] |==|  0.40243
USER: genes 13 Torsion [C]-N--CA-[C] |==|  0.53296
USER: genes 14 Torsion [N]-CA--C-[O] |==|  0.98083
ROOT
ATOM      1  CA  ALA E  11       1.901  20.905   2.422  1.00 85.35 LIG 0.17  C 
ATOM      2  CB  ALA E  11       1.259  20.803   3.807  1.00 80.46 LIG 0.04  C 
ENDROOT
BRANCH 1 3
ATOM      3  N   ALA E  11       3.032  21.825   2.460  1.00 87.15 LIG-0.35  N 
ATOM      4  C   ALA E  10       4.017  21.649   3.345  1.00 62.15 LIG 0.24  C 
ATOM      5 O    ALA E  10       4.126  20.620   4.014  1.00 65.72 LIG-0.27  OA
ATOM      6 H    ALA E  11       3.003  22.461   1.883  1.00 87.15 LIG 0.16  HD
BRANCH 4 7
ATOM      7  CA  ALA E  10       5.028  22.778   3.507  1.00 66.45 LIG 0.17  C 
ATOM      8  CB  ALA E  10       6.450  22.219   3.530  1.00 58.63 LIG 0.04  C 
BRANCH 7 9
ATOM      9  N   ALA E  10       4.786  23.557   4.712  1.00 75.43 LIG-0.35  N 
ATOM     10  C   ALA E   9       3.636  24.183   4.952  1.00 82.21 LIG 0.24  C 
ATOM     11 O    ALA E   9       2.686  24.189   4.162  1.00 73.75 LIG-0.27  OA
ATOM     12 H    ALA E  10       5.455  23.575   5.254  1.00 75.43 LIG 0.16  HD
BRANCH 10 13
ATOM     13  CA  ALA E   9       3.550  24.941   6.270  1.00 87.65 LIG 0.17  C 
ATOM     14  CB  ALA E   9       3.656  26.448   6.044  1.00 72.21 LIG 0.04  C 
BRANCH 13 15
ATOM     15  N   ALA E   9       4.616  24.456   7.137  1.00 84.24 LIG-0.35  N 
ATOM     16 H    ALA E   9       5.234  25.034   7.291  1.00 84.24 LIG 0.16  HD
ATOM     17  C   ALA E   8       4.618  23.228   7.637  1.00 61.40 LIG 0.26  C 
ATOM     18 O    ALA E   8       3.682  22.447   7.485  1.00 66.21 LIG-0.27  OA
BRANCH 17 19
ATOM     19  CA  ALA E   8       5.845  22.833   8.453  1.00 67.03 LIG 0.40  C 
ATOM     20  N   ALA E   8       6.992  22.504   7.555  1.00 60.26 LIG 0.61  N 
ATOM     21  CB  ALA E   8       6.230  23.948   9.419  1.00 64.64 LIG 0.06  C 
ENDBRANCH 17 19
ENDBRANCH 13 15
ENDBRANCH 10 13
ENDBRANCH 7 9
ENDBRANCH 4 7
ENDBRANCH 1 3
BRANCH 1 22
ATOM     22  C   ALA E  11       0.865  21.335   1.391  1.00 81.78 LIG 0.24  C 
ATOM     23  N   ALA E  12      -0.415  21.303   1.756  1.00 82.91 LIG-0.35  N 
ATOM     24 H    ALA E  12      -0.693  21.165   2.558  1.00 82.91 LIG 0.16  HD
ATOM     25 O    ALA E  11       1.214  21.687   0.258  1.00 89.30 LIG-0.27  OA
BRANCH 23 26
ATOM     26  CA  ALA E  12      -1.464  21.512   0.767  1.00 61.10 LIG 0.17  C 
ATOM     27  CB  ALA E  12      -2.851  21.479   1.428  1.00 65.27 LIG 0.04  C 
BRANCH 26 28
ATOM     28  C   ALA E  12      -1.254  22.828   0.037  1.00 54.59 LIG 0.24  C 
ATOM     29  N   ALA E  13      -1.791  22.883  -1.182  1.00 64.78 LIG-0.35  N 
ATOM     30 H    ALA E  13      -2.276  22.257  -1.519  1.00 64.78 LIG 0.16  HD
ATOM     31 O    ALA E  12      -0.663  23.772   0.568  1.00 69.11 LIG-0.27  OA
BRANCH 29 32
ATOM     32  CA  ALA E  13      -1.598  24.026  -2.060  1.00 54.23 LIG 0.17  C 
ATOM     33  CB  ALA E  13      -2.070  25.303  -1.366  1.00 56.27 LIG 0.04  C 
BRANCH 32 34
ATOM     34  C   ALA E  13      -0.145  24.209  -2.461  1.00 65.29 LIG 0.24  C 
ATOM     35  N   ALA E  14       0.050  24.658  -3.695  1.00 85.74 LIG-0.35  N 
ATOM     36 H    ALA E  14      -0.587  24.804  -4.253  1.00 85.74 LIG 0.16  HD
ATOM     37 O    ALA E  13       0.771  24.009  -1.660  1.00 75.52 LIG-0.27  OA
BRANCH 35 38
ATOM     38  CA  ALA E  14       1.372  24.948  -4.222  1.00 94.46 LIG 0.16  C 
ATOM     39  CB  ALA E  14       2.146  23.664  -4.418  1.00106.12 LIG 0.04  C 
BRANCH 38 40
ATOM     40  C   ALA E  14       1.263  25.713  -5.536  1.00 99.07 LIG 0.22  C 
ATOM     41 O    ALA E  14       0.170  25.892  -6.072  1.00120.33 LIG-0.29  OA
ENDBRANCH 38 40
ENDBRANCH 35 38
ENDBRANCH 32 34
ENDBRANCH 29 32
ENDBRANCH 26 28
ENDBRANCH 23 26
ENDBRANCH 1 22
TORSDOF 13
ENDMDL
MODEL 134
USER: ADFR SOLUTION from run 37
USER: SCORE 5.558368 LL:  -2.658 LR:  -3.844 RR:   0.000 FEB:   0.034
USER: RMSD 4.456537
USER: SEED 36
USER: STATUS searching
USER: GENES 15
USER: genes 0 Translation |==|  0.67408 0.37732 0.54634
USER: genes 1 Rotation |==|  0.85190 0.82059 0.59718 0.61808
USER: genes 2 Torsion [CB]-CA--N-[C] |==|  0.83962
USER: genes 3 Torsion [N]-C--CA-[N] |==|  0.20826
USER: genes 4 Torsion [C]-CA--N-[C] |==|  0.77755
USER: genes 5 Torsion [N]-C--CA-[N] |==|  0.36675
USER: genes 6 Torsion [C]-CA--N-[C] |==|  0.82990
USER: genes 7 Torsion [N]-C--CA-[N] |==|  0.36250
USER: genes 8 Torsion [N]-CA--C-[N] |==|  0.36667
USER: genes 9 Torsion [C]-N--CA-[CB] |==|  0.16534
USER: genes 10 Torsion [N]-CA--C-[N] |==|  0.11885
USER: genes 11 Torsion [C]-N--CA-[CB] |==|  0.49445
USER: genes 12 Torsion [N]-CA--C-[N] |==|  0.43890
USER: genes 13 Torsion [C]-N--CA-[C] |==|  0.76346
USER: genes 14 Torsion [N]-CA--C-[O] |==|  0.97237
ROOT
ATOM      1  CA  ALA E  11       2.697  21.421   2.028  1.00 85.35 LIG 0.17  C 
ATOM      2  CB  ALA E  11       3.670  20.413   1.413  1.00 80.46 LIG 0.04  C 
ENDROOT
BRANCH 1 3
ATOM      3  N   ALA E  11       3.409  22.323   2.926  1.00 87.15 LIG-0.35  N 
ATOM      4  C   ALA E  10       4.104  21.839   3.959  1.00 62.15 LIG 0.24  C 
ATOM      5 O    ALA E  10       4.346  20.638   4.086  1.00 65.72 LIG-0.27  OA
ATOM      6 H    ALA E  11       3.341  23.158   2.732  1.00 87.15 LIG 0.16  HD
BRANCH 4 7
ATOM      7  CA  ALA E  10       4.605  22.836   4.998  1.00 66.45 LIG 0.17  C 
ATOM      8  CB  ALA E  10       5.714  22.209   5.843  1.00 58.63 LIG 0.04  C 
BRANCH 7 9
ATOM      9  N   ALA E  10       3.533  23.306   5.863  1.00 75.43 LIG-0.35  N 
ATOM     10  C   ALA E   9       2.675  24.257   5.502  1.00 82.21 LIG 0.24  C 
ATOM     11 O    ALA E   9       2.729  24.848   4.418  1.00 73.75 LIG-0.27  OA
ATOM     12 H    ALA E  10       3.507  22.912   6.628  1.00 75.43 LIG 0.16  HD
BRANCH 10 13
ATOM     13  CA  ALA E   9       1.606  24.617   6.525  1.00 87.65 LIG 0.17  C 
ATOM     14  CB  ALA E   9       0.246  24.053   6.120  1.00 72.21 LIG 0.04  C 
BRANCH 13 15
ATOM     15  N   ALA E   9       1.568  26.069   6.641  1.00 84.24 LIG-0.35  N 
ATOM     16 H    ALA E   9       0.812  26.420   6.424  1.00 84.24 LIG 0.16  HD
ATOM     17  C   ALA E   8       2.614  26.776   7.045  1.00 61.40 LIG 0.26  C 
ATOM     18 O    ALA E   8       3.655  26.254   7.440  1.00 66.21 LIG-0.27  OA
BRANCH 17 19
ATOM     19  CA  ALA E   8       2.454  28.293   7.028  1.00 67.03 LIG 0.40  C 
ATOM     20  N   ALA E   8       2.878  28.882   8.334  1.00 60.26 LIG 0.61  N 
ATOM     21  CB  ALA E   8       3.253  28.905   5.884  1.00 64.64 LIG 0.06  C 
ENDBRANCH 17 19
ENDBRANCH 13 15
ENDBRANCH 10 13
ENDBRANCH 7 9
ENDBRANCH 4 7
ENDBRANCH 1 3
BRANCH 1 22
ATOM     22  C   ALA E  11       1.569  20.692   2.749  1.00 81.78 LIG 0.24  C 
ATOM     23  N   ALA E  12       0.376  20.669   2.157  1.00 82.91 LIG-0.35  N 
ATOM     24 H    ALA E  12       0.222  20.937   1.354  1.00 82.91 LIG 0.16  HD
ATOM     25 O    ALA E  11       1.765  20.157   3.846  1.00 89.30 LIG-0.27  OA
BRANCH 23 26
ATOM     26  CA  ALA E  12      -0.787  20.164   2.874  1.00 61.10 LIG 0.17  C 
ATOM     27  CB  ALA E  12      -1.039  20.981   4.150  1.00 65.27 LIG 0.04  C 
BRANCH 26 28
ATOM     28  C   ALA E  12      -2.016  20.185   1.978  1.00 54.59 LIG 0.24  C 
ATOM     29  N   ALA E  13      -1.805  19.765   0.731  1.00 64.78 LIG-0.35  N 
ATOM     30 H    ALA E  13      -1.057  19.442   0.455  1.00 64.78 LIG 0.16  HD
ATOM     31 O    ALA E  12      -3.119  20.532   2.408  1.00 69.11 LIG-0.27  OA
BRANCH 29 32
ATOM     32  CA  ALA E  13      -2.843  19.817  -0.286  1.00 54.23 LIG 0.17  C 
ATOM     33  CB  ALA E  13      -2.291  19.315  -1.621  1.00 56.27 LIG 0.04  C 
BRANCH 32 34
ATOM     34  C   ALA E  13      -4.053  18.975   0.077  1.00 65.29 LIG 0.24  C 
ATOM     35  N   ALA E  14      -5.183  19.314  -0.533  1.00 85.74 LIG-0.35  N 
ATOM     36 H    ALA E  14      -5.250  19.982  -1.070  1.00 85.74 LIG 0.16  HD
ATOM     37 O    ALA E  13      -3.958  18.011   0.840  1.00 75.52 LIG-0.27  OA
BRANCH 35 38
ATOM     38  CA  ALA E  14      -6.421  18.579  -0.349  1.00 94.46 LIG 0.16  C 
ATOM     39  CB  ALA E  14      -7.606  19.492  -0.569  1.00106.12 LIG 0.04  C 
BRANCH 38 40
ATOM     40  C   ALA E  14      -6.478  17.390  -1.302  1.00 99.07 LIG 0.22  C 
ATOM     41 O    ALA E  14      -5.650  17.264  -2.203  1.00120.33 LIG-0.29  OA
ENDBRANCH 38 40
ENDBRANCH 35 38
ENDBRANCH 32 34
ENDBRANCH 29 32
ENDBRANCH 26 28
ENDBRANCH 23 26
ENDBRANCH 1 22
TORSDOF 13
ENDMDL
MODEL 135
USER: ADFR SOLUTION from run 37
USER: SCORE 5.848353 LL:  -2.561 LR:  -3.839 RR:   0.000 FEB:   0.039
USER: RMSD 3.531492
USER: SEED 36
USER: STATUS searching
USER: GENES 15
USER: genes 0 Translation |==|  0.67408 0.37732 0.54634
USER: genes 1 Rotation |==|  0.85190 0.82059 0.59718 0.61808
USER: genes 2 Torsion [CB]-CA--N-[C] |==|  0.83962
USER: genes 3 Torsion [N]-C--CA-[N] |==|  0.20826
USER: genes 4 Torsion [C]-CA--N-[C] |==|  0.77755
USER: genes 5 Torsion [N]-C--CA-[N] |==|  0.36675
USER: genes 6 Torsion [C]-CA--N-[C] |==|  0.82990
USER: genes 7 Torsion [N]-C--CA-[N] |==|  0.36250
USER: genes 8 Torsion [N]-CA--C-[N] |==|  0.36667
USER: genes 9 Torsion [C]-N--CA-[CB] |==|  0.16535
USER: genes 10 Torsion [N]-CA--C-[N] |==|  0.08992
USER: genes 11 Torsion [C]-N--CA-[CB] |==|  0.84372
USER: genes 12 Torsion [N]-CA--C-[N] |==|  0.40556
USER: genes 13 Torsion [C]-N--CA-[C] |==|  0.77007
USER: genes 14 Torsion [N]-CA--C-[O] |==|  0.97437
ROOT
ATOM      1  CA  ALA E  11       2.697  21.421   2.028  1.00 85.35 LIG 0.17  C 
ATOM      2  CB  ALA E  11       3.670  20.413   1.413  1.00 80.46 LIG 0.04  C 
ENDROOT
BRANCH 1 3
ATOM      3  N   ALA E  11       3.409  22.323   2.926  1.00 87.15 LIG-0.35  N 
ATOM      4  C   ALA E  10       4.104  21.839   3.959  1.00 62.15 LIG 0.24  C 
ATOM      5 O    ALA E  10       4.346  20.638   4.086  1.00 65.72 LIG-0.27  OA
ATOM      6 H    ALA E  11       3.341  23.158   2.732  1.00 87.15 LIG 0.16  HD
BRANCH 4 7
ATOM      7  CA  ALA E  10       4.605  22.836   4.998  1.00 66.45 LIG 0.17  C 
ATOM      8  CB  ALA E  10       5.714  22.209   5.843  1.00 58.63 LIG 0.04  C 
BRANCH 7 9
ATOM      9  N   ALA E  10       3.533  23.306   5.863  1.00 75.43 LIG-0.35  N 
ATOM     10  C   ALA E   9       2.675  24.257   5.502  1.00 82.21 LIG 0.24  C 
ATOM     11 O    ALA E   9       2.729  24.848   4.418  1.00 73.75 LIG-0.27  OA
ATOM     12 H    ALA E  10       3.507  22.912   6.628  1.00 75.43 LIG 0.16  HD
BRANCH 10 13
ATOM     13  CA  ALA E   9       1.606  24.617   6.525  1.00 87.65 LIG 0.17  C 
ATOM     14  CB  ALA E   9       0.246  24.053   6.120  1.00 72.21 LIG 0.04  C 
BRANCH 13 15
ATOM     15  N   ALA E   9       1.568  26.069   6.641  1.00 84.24 LIG-0.35  N 
ATOM     16 H    ALA E   9       0.812  26.420   6.424  1.00 84.24 LIG 0.16  HD
ATOM     17  C   ALA E   8       2.614  26.776   7.045  1.00 61.40 LIG 0.26  C 
ATOM     18 O    ALA E   8       3.655  26.254   7.440  1.00 66.21 LIG-0.27  OA
BRANCH 17 19
ATOM     19  CA  ALA E   8       2.454  28.293   7.028  1.00 67.03 LIG 0.40  C 
ATOM     20  N   ALA E   8       2.878  28.882   8.334  1.00 60.26 LIG 0.61  N 
ATOM     21  CB  ALA E   8       3.253  28.905   5.884  1.00 64.64 LIG 0.06  C 
ENDBRANCH 17 19
ENDBRANCH 13 15
ENDBRANCH 10 13
ENDBRANCH 7 9
ENDBRANCH 4 7
ENDBRANCH 1 3
BRANCH 1 22
ATOM     22  C   ALA E  11       1.569  20.692   2.749  1.00 81.78 LIG 0.24  C 
ATOM     23  N   ALA E  12       0.376  20.669   2.157  1.00 82.91 LIG-0.35  N 
ATOM     24 H    ALA E  12       0.222  20.936   1.354  1.00 82.91 LIG 0.16  HD
ATOM     25 O    ALA E  11       1.765  20.157   3.846  1.00 89.30 LIG-0.27  OA
BRANCH 23 26
ATOM     26  CA  ALA E  12      -0.787  20.164   2.874  1.00 61.10 LIG 0.17  C 
ATOM     27  CB  ALA E  12      -1.039  20.981   4.150  1.00 65.27 LIG 0.04  C 
BRANCH 26 28
ATOM     28  C   ALA E  12      -2.016  20.185   1.978  1.00 54.59 LIG 0.24  C 
ATOM     29  N   ALA E  13      -1.768  19.976   0.685  1.00 64.78 LIG-0.35  N 
ATOM     30 H    ALA E  13      -0.991  19.779   0.373  1.00 64.78 LIG 0.16  HD
ATOM     31 O    ALA E  12      -3.148  20.346   2.442  1.00 69.11 LIG-0.27  OA
BRANCH 29 32
ATOM     32  CA  ALA E  13      -2.811  20.066  -0.324  1.00 54.23 LIG 0.17  C 
ATOM     33  CB  ALA E  13      -3.956  19.114   0.022  1.00 56.27 LIG 0.04  C 
BRANCH 32 34
ATOM     34  C   ALA E  13      -3.377  21.469  -0.449  1.00 65.29 LIG 0.24  C 
ATOM     35  N   ALA E  14      -3.745  21.825  -1.674  1.00 85.74 LIG-0.35  N 
ATOM     36 H    ALA E  14      -3.642  21.324  -2.364  1.00 85.74 LIG 0.16  HD
ATOM     37 O    ALA E  13      -3.533  22.188   0.541  1.00 75.52 LIG-0.27  OA
BRANCH 35 38
ATOM     38  CA  ALA E  14      -4.361  23.108  -1.963  1.00 94.46 LIG 0.16  C 
ATOM     39  CB  ALA E  14      -4.112  23.491  -3.404  1.00106.12 LIG 0.04  C 
BRANCH 38 40
ATOM     40  C   ALA E  14      -5.857  23.054  -1.675  1.00 99.07 LIG 0.22  C 
ATOM     41 O    ALA E  14      -6.412  21.985  -1.420  1.00120.33 LIG-0.29  OA
ENDBRANCH 38 40
ENDBRANCH 35 38
ENDBRANCH 32 34
ENDBRANCH 29 32
ENDBRANCH 26 28
ENDBRANCH 23 26
ENDBRANCH 1 22
TORSDOF 13
ENDMDL
MODEL 136
USER: ADFR SOLUTION from run 44
USER: SCORE 6.261187 LL:  -3.100 LR:  -3.837 RR:   0.000 FEB:   0.041
USER: RMSD 4.758173
USER: SEED 43
USER: STATUS no improvement in best in 31 clusters for 5 generations
USER: GENES 15
USER: genes 0 Translation |==|  0.63934 0.32605 0.61826
USER: genes 1 Rotation |==|  0.81804 0.72875 0.58560 0.79866
USER: genes 2 Torsion [CB]-CA--N-[C] |==|  0.13478
USER: genes 3 Torsion [N]-C--CA-[N] |==|  0.03325
USER: genes 4 Torsion [C]-CA--N-[C] |==|  0.74955
USER: genes 5 Torsion [N]-C--CA-[N] |==|  0.38465
USER: genes 6 Torsion [C]-CA--N-[C] |==|  0.84116
USER: genes 7 Torsion [N]-C--CA-[N] |==|  0.30852
USER: genes 8 Torsion [N]-CA--C-[N] |==|  0.11818
USER: genes 9 Torsion [C]-N--CA-[CB] |==|  0.18445
USER: genes 10 Torsion [N]-CA--C-[N] |==|  0.10258
USER: genes 11 Torsion [C]-N--CA-[CB] |==|  0.84997
USER: genes 12 Torsion [N]-CA--C-[N] |==|  0.39951
USER: genes 13 Torsion [C]-N--CA-[C] |==|  0.55989
USER: genes 14 Torsion [N]-CA--C-[O] |==|  0.96839
ROOT
ATOM      1  CA  ALA E  11       1.915  20.498   3.323  1.00 85.35 LIG 0.17  C 
ATOM      2  CB  ALA E  11       2.516  19.178   3.809  1.00 80.46 LIG 0.04  C 
ENDROOT
BRANCH 1 3
ATOM      3  N   ALA E  11       2.500  21.616   4.055  1.00 87.15 LIG-0.35  N 
ATOM      4  C   ALA E  10       3.825  21.710   4.198  1.00 62.15 LIG 0.24  C 
ATOM      5 O    ALA E  10       4.608  21.001   3.567  1.00 65.72 LIG-0.27  OA
ATOM      6 H    ALA E  11       1.933  22.181   4.370  1.00 87.15 LIG 0.16  HD
BRANCH 4 7
ATOM      7  CA  ALA E  10       4.354  22.747   5.184  1.00 66.45 LIG 0.17  C 
ATOM      8  CB  ALA E  10       5.449  22.137   6.057  1.00 58.63 LIG 0.04  C 
BRANCH 7 9
ATOM      9  N   ALA E  10       3.297  23.288   6.025  1.00 75.43 LIG-0.35  N 
ATOM     10  C   ALA E   9       2.588  24.365   5.696  1.00 82.21 LIG 0.24  C 
ATOM     11 O    ALA E   9       2.785  25.022   4.668  1.00 73.75 LIG-0.27  OA
ATOM     12 H    ALA E  10       3.173  22.847   6.753  1.00 75.43 LIG 0.16  HD
BRANCH 10 13
ATOM     13  CA  ALA E   9       1.511  24.786   6.687  1.00 87.65 LIG 0.17  C 
ATOM     14  CB  ALA E   9       0.135  24.294   6.242  1.00 72.21 LIG 0.04  C 
BRANCH 13 15
ATOM     15  N   ALA E   9       1.547  26.239   6.798  1.00 84.24 LIG-0.35  N 
ATOM     16 H    ALA E   9       0.801  26.624   6.611  1.00 84.24 LIG 0.16  HD
ATOM     17  C   ALA E   8       2.642  26.895   7.157  1.00 61.40 LIG 0.26  C 
ATOM     18 O    ALA E   8       3.672  26.324   7.511  1.00 66.21 LIG-0.27  OA
BRANCH 17 19
ATOM     19  CA  ALA E   8       2.554  28.417   7.141  1.00 67.03 LIG 0.40  C 
ATOM     20  N   ALA E   8       2.600  28.962   8.531  1.00 60.26 LIG 0.61  N 
ATOM     21  CB  ALA E   8       3.677  29.012   6.300  1.00 64.64 LIG 0.06  C 
ENDBRANCH 17 19
ENDBRANCH 13 15
ENDBRANCH 10 13
ENDBRANCH 7 9
ENDBRANCH 4 7
ENDBRANCH 1 3
BRANCH 1 22
ATOM     22  C   ALA E  11       0.398  20.470   3.464  1.00 81.78 LIG 0.24  C 
ATOM     23  N   ALA E  12      -0.249  21.631   3.373  1.00 82.91 LIG-0.35  N 
ATOM     24 H    ALA E  12       0.111  22.375   3.133  1.00 82.91 LIG 0.16  HD
ATOM     25 O    ALA E  11      -0.196  19.405   3.667  1.00 89.30 LIG-0.27  OA
BRANCH 23 26
ATOM     26  CA  ALA E  12      -1.668  21.706   3.691  1.00 61.10 LIG 0.17  C 
ATOM     27  CB  ALA E  12      -1.907  21.433   5.184  1.00 65.27 LIG 0.04  C 
BRANCH 26 28
ATOM     28  C   ALA E  12      -2.231  23.063   3.302  1.00 54.59 LIG 0.24  C 
ATOM     29  N   ALA E  13      -1.727  23.576   2.180  1.00 64.78 LIG-0.35  N 
ATOM     30 H    ALA E  13      -1.175  23.159   1.670  1.00 64.78 LIG 0.16  HD
ATOM     31 O    ALA E  12      -3.114  23.609   3.970  1.00 69.11 LIG-0.27  OA
BRANCH 29 32
ATOM     32  CA  ALA E  13      -2.075  24.910   1.717  1.00 54.23 LIG 0.17  C 
ATOM     33  CB  ALA E  13      -3.594  25.049   1.619  1.00 56.27 LIG 0.04  C 
BRANCH 32 34
ATOM     34  C   ALA E  13      -1.555  25.998   2.640  1.00 65.29 LIG 0.24  C 
ATOM     35  N   ALA E  14      -1.146  27.107   2.035  1.00 85.74 LIG-0.35  N 
ATOM     36 H    ALA E  14      -1.134  27.205   1.181  1.00 85.74 LIG 0.16  HD
ATOM     37 O    ALA E  13      -1.577  25.864   3.866  1.00 75.52 LIG-0.27  OA
BRANCH 35 38
ATOM     38  CA  ALA E  14      -0.676  28.269   2.767  1.00 94.46 LIG 0.16  C 
ATOM     39  CB  ALA E  14       0.752  28.057   3.218  1.00106.12 LIG 0.04  C 
BRANCH 38 40
ATOM     40  C   ALA E  14      -0.784  29.520   1.903  1.00 99.07 LIG 0.22  C 
ATOM     41 O    ALA E  14      -1.020  29.434   0.698  1.00120.33 LIG-0.29  OA
ENDBRANCH 38 40
ENDBRANCH 35 38
ENDBRANCH 32 34
ENDBRANCH 29 32
ENDBRANCH 26 28
ENDBRANCH 23 26
ENDBRANCH 1 22
TORSDOF 13
ENDMDL
MODEL 137
USER: ADFR SOLUTION from run 168
USER: SCORE 3.680359 LL:  -2.660 LR:  -3.843 RR:   0.000 FEB:   0.034
USER: RMSD 4.761590
USER: SEED 167
USER: STATUS no improvement in best in 115 clusters for 5 generations
USER: GENES 15
USER: genes 0 Translation |==|  0.61032 0.31328 0.62425
USER: genes 1 Rotation |==|  0.44161 0.33565 0.56452 0.96413
USER: genes 2 Torsion [CB]-CA--N-[C] |==|  0.43303
USER: genes 3 Torsion [N]-C--CA-[N] |==|  0.11331
USER: genes 4 Torsion [C]-CA--N-[C] |==|  0.20542
USER: genes 5 Torsion [N]-C--CA-[N] |==|  0.92764
USER: genes 6 Torsion [C]-CA--N-[C] |==|  0.82066
USER: genes 7 Torsion [N]-C--CA-[N] |==|  0.27653
USER: genes 8 Torsion [N]-CA--C-[N] |==|  0.93840
USER: genes 9 Torsion [C]-N--CA-[CB] |==|  0.82361
USER: genes 10 Torsion [N]-CA--C-[N] |==|  0.54975
USER: genes 11 Torsion [C]-N--CA-[CB] |==|  0.84756
USER: genes 12 Torsion [N]-CA--C-[N] |==|  0.39231
USER: genes 13 Torsion [C]-N--CA-[C] |==|  0.76936
USER: genes 14 Torsion [N]-CA--C-[O] |==|  0.98947
ROOT
ATOM      1  CA  ALA E  11       1.262  20.268   3.430  1.00 85.35 LIG 0.17  C 
ATOM      2  CB  ALA E  11      -0.216  20.607   3.634  1.00 80.46 LIG 0.04  C 
ENDROOT
BRANCH 1 3
ATOM      3  N   ALA E  11       2.054  21.492   3.366  1.00 87.15 LIG-0.35  N 
ATOM      4  C   ALA E  10       3.354  21.472   3.671  1.00 62.15 LIG 0.24  C 
ATOM      5 O    ALA E  10       3.981  20.422   3.816  1.00 65.72 LIG-0.27  OA
ATOM      6 H    ALA E  11       1.620  22.194   3.124  1.00 87.15 LIG 0.16  HD
BRANCH 4 7
ATOM      7  CA  ALA E  10       4.059  22.814   3.835  1.00 66.45 LIG 0.17  C 
ATOM      8  CB  ALA E  10       5.387  22.630   4.568  1.00 58.63 LIG 0.04  C 
BRANCH 7 9
ATOM      9  N   ALA E  10       3.234  23.779   4.547  1.00 75.43 LIG-0.35  N 
ATOM     10  C   ALA E   9       3.014  23.717   5.858  1.00 82.21 LIG 0.24  C 
ATOM     11 O    ALA E   9       3.459  22.820   6.582  1.00 73.75 LIG-0.27  OA
ATOM     12 H    ALA E  10       2.903  24.391   4.041  1.00 75.43 LIG 0.16  HD
BRANCH 10 13
ATOM     13  CA  ALA E   9       2.136  24.817   6.441  1.00 87.65 LIG 0.17  C 
ATOM     14  CB  ALA E   9       0.686  24.354   6.565  1.00 72.21 LIG 0.04  C 
BRANCH 13 15
ATOM     15  N   ALA E   9       2.251  25.986   5.579  1.00 84.24 LIG-0.35  N 
ATOM     16 H    ALA E   9       1.519  26.206   5.185  1.00 84.24 LIG 0.16  HD
ATOM     17  C   ALA E   8       3.392  26.644   5.427  1.00 61.40 LIG 0.26  C 
ATOM     18 O    ALA E   8       4.405  26.376   6.069  1.00 66.21 LIG-0.27  OA
BRANCH 17 19
ATOM     19  CA  ALA E   8       3.381  27.792   4.422  1.00 67.03 LIG 0.40  C 
ATOM     20  N   ALA E   8       3.231  29.104   5.122  1.00 60.26 LIG 0.61  N 
ATOM     21  CB  ALA E   8       4.652  27.782   3.580  1.00 64.64 LIG 0.06  C 
ENDBRANCH 17 19
ENDBRANCH 13 15
ENDBRANCH 10 13
ENDBRANCH 7 9
ENDBRANCH 4 7
ENDBRANCH 1 3
BRANCH 1 22
ATOM     22  C   ALA E  11       1.441  19.421   2.177  1.00 81.78 LIG 0.24  C 
ATOM     23  N   ALA E  12       1.860  20.037   1.073  1.00 82.91 LIG-0.35  N 
ATOM     24 H    ALA E  12       2.140  20.850   1.042  1.00 82.91 LIG 0.16  HD
ATOM     25 O    ALA E  11       1.191  18.209   2.195  1.00 89.30 LIG-0.27  OA
BRANCH 23 26
ATOM     26  CA  ALA E  12       1.865  19.333  -0.203  1.00 61.10 LIG 0.17  C 
ATOM     27  CB  ALA E  12       2.833  18.142  -0.163  1.00 65.27 LIG 0.04  C 
BRANCH 26 28
ATOM     28  C   ALA E  12       0.463  18.867  -0.560  1.00 54.59 LIG 0.24  C 
ATOM     29  N   ALA E  13       0.411  17.912  -1.489  1.00 64.78 LIG-0.35  N 
ATOM     30 H    ALA E  13       1.107  17.533  -1.823  1.00 64.78 LIG 0.16  HD
ATOM     31 O    ALA E  12      -0.532  19.324   0.009  1.00 69.11 LIG-0.27  OA
BRANCH 29 32
ATOM     32  CA  ALA E  13      -0.850  17.423  -2.024  1.00 54.23 LIG 0.17  C 
ATOM     33  CB  ALA E  13      -1.754  16.954  -0.883  1.00 56.27 LIG 0.04  C 
BRANCH 32 34
ATOM     34  C   ALA E  13      -1.592  18.484  -2.816  1.00 65.29 LIG 0.24  C 
ATOM     35  N   ALA E  14      -2.207  18.047  -3.910  1.00 85.74 LIG-0.35  N 
ATOM     36 H    ALA E  14      -2.166  17.234  -4.184  1.00 85.74 LIG 0.16  HD
ATOM     37 O    ALA E  13      -1.659  19.651  -2.422  1.00 75.52 LIG-0.27  OA
BRANCH 35 38
ATOM     38  CA  ALA E  14      -3.013  18.913  -4.752  1.00 94.46 LIG 0.16  C 
ATOM     39  CB  ALA E  14      -3.060  18.371  -6.162  1.00106.12 LIG 0.04  C 
BRANCH 38 40
ATOM     40  C   ALA E  14      -4.420  19.046  -4.182  1.00 99.07 LIG 0.22  C 
ATOM     41 O    ALA E  14      -4.759  18.408  -3.186  1.00120.33 LIG-0.29  OA
ENDBRANCH 38 40
ENDBRANCH 35 38
ENDBRANCH 32 34
ENDBRANCH 29 32
ENDBRANCH 26 28
ENDBRANCH 23 26
ENDBRANCH 1 22
TORSDOF 13
ENDMDL
MODEL 138
USER: ADFR SOLUTION from run 67
USER: SCORE 4.644298 LL:  -2.376 LR:  -3.844 RR:   0.000 FEB:   0.034
USER: RMSD 4.475028
USER: SEED 66
USER: STATUS searching
USER: GENES 15
USER: genes 0 Translation |==|  0.56944 0.25249 0.56795
USER: genes 1 Rotation |==|  0.77028 0.66309 0.59821 0.87511
USER: genes 2 Torsion [CB]-CA--N-[C] |==|  0.18826
USER: genes 3 Torsion [N]-C--CA-[N] |==|  0.47733
USER: genes 4 Torsion [C]-CA--N-[C] |==|  0.57773
USER: genes 5 Torsion [N]-C--CA-[N] |==|  0.19961
USER: genes 6 Torsion [C]-CA--N-[C] |==|  0.79030
USER: genes 7 Torsion [N]-C--CA-[N] |==|  0.58164
USER: genes 8 Torsion [N]-CA--C-[N] |==|  0.53392
USER: genes 9 Torsion [C]-N--CA-[CB] |==|  0.83710
USER: genes 10 Torsion [N]-CA--C-[N] |==|  0.42148
USER: genes 11 Torsion [C]-N--CA-[CB] |==|  0.17167
USER: genes 12 Torsion [N]-CA--C-[N] |==|  0.10547
USER: genes 13 Torsion [C]-N--CA-[C] |==|  0.73598
USER: genes 14 Torsion [N]-CA--C-[O] |==|  0.03771
ROOT
ATOM      1  CA  ALA E  11       0.342  19.174   2.417  1.00 85.35 LIG 0.17  C 
ATOM      2  CB  ALA E  11       0.547  17.988   3.362  1.00 80.46 LIG 0.04  C 
ENDROOT
BRANCH 1 3
ATOM      3  N   ALA E  11       0.796  20.406   3.052  1.00 87.15 LIG-0.35  N 
ATOM      4  C   ALA E  10       2.094  20.600   3.301  1.00 62.15 LIG 0.24  C 
ATOM      5 O    ALA E  10       2.970  19.869   2.836  1.00 65.72 LIG-0.27  OA
ATOM      6 H    ALA E  11       0.174  20.969   3.242  1.00 87.15 LIG 0.16  HD
BRANCH 4 7
ATOM      7  CA  ALA E  10       2.473  21.778   4.191  1.00 66.45 LIG 0.17  C 
ATOM      8  CB  ALA E  10       2.119  23.097   3.505  1.00 58.63 LIG 0.04  C 
BRANCH 7 9
ATOM      9  N   ALA E  10       3.886  21.767   4.537  1.00 75.43 LIG-0.35  N 
ATOM     10  C   ALA E   9       4.362  22.299   5.660  1.00 82.21 LIG 0.24  C 
ATOM     11 O    ALA E   9       3.655  22.878   6.493  1.00 73.75 LIG-0.27  OA
ATOM     12 H    ALA E  10       4.385  21.386   3.948  1.00 75.43 LIG 0.16  HD
BRANCH 10 13
ATOM     13  CA  ALA E   9       5.866  22.187   5.869  1.00 87.65 LIG 0.17  C 
ATOM     14  CB  ALA E   9       6.244  22.504   7.315  1.00 72.21 LIG 0.04  C 
BRANCH 13 15
ATOM     15  N   ALA E   9       6.518  23.097   4.936  1.00 84.24 LIG-0.35  N 
ATOM     16 H    ALA E   9       6.820  23.816   5.299  1.00 84.24 LIG 0.16  HD
ATOM     17  C   ALA E   8       6.627  22.827   3.643  1.00 61.40 LIG 0.26  C 
ATOM     18 O    ALA E   8       6.275  21.755   3.156  1.00 66.21 LIG-0.27  OA
BRANCH 17 19
ATOM     19  CA  ALA E   8       7.252  23.915   2.776  1.00 67.03 LIG 0.40  C 
ATOM     20  N   ALA E   8       6.713  23.855   1.384  1.00 60.26 LIG 0.61  N 
ATOM     21  CB  ALA E   8       7.006  25.293   3.381  1.00 64.64 LIG 0.06  C 
ENDBRANCH 17 19
ENDBRANCH 13 15
ENDBRANCH 10 13
ENDBRANCH 7 9
ENDBRANCH 4 7
ENDBRANCH 1 3
BRANCH 1 22
ATOM     22  C   ALA E  11      -1.119  19.268   1.998  1.00 81.78 LIG 0.24  C 
ATOM     23  N   ALA E  12      -1.729  18.140   1.636  1.00 82.91 LIG-0.35  N 
ATOM     24 H    ALA E  12      -1.395  17.352   1.726  1.00 82.91 LIG 0.16  HD
ATOM     25 O    ALA E  11      -1.702  20.358   1.986  1.00 89.30 LIG-0.27  OA
BRANCH 23 26
ATOM     26  CA  ALA E  12      -3.057  18.183   1.040  1.00 61.10 LIG 0.17  C 
ATOM     27  CB  ALA E  12      -4.058  18.858   1.990  1.00 65.27 LIG 0.04  C 
BRANCH 26 28
ATOM     28  C   ALA E  12      -3.020  18.908  -0.295  1.00 54.59 LIG 0.24  C 
ATOM     29  N   ALA E  13      -3.950  18.522  -1.168  1.00 64.78 LIG-0.35  N 
ATOM     30 H    ALA E  13      -4.571  17.955  -0.984  1.00 64.78 LIG 0.16  HD
ATOM     31 O    ALA E  12      -2.205  19.809  -0.516  1.00 69.11 LIG-0.27  OA
BRANCH 29 32
ATOM     32  CA  ALA E  13      -3.994  19.035  -2.527  1.00 54.23 LIG 0.17  C 
ATOM     33  CB  ALA E  13      -2.713  18.656  -3.270  1.00 56.27 LIG 0.04  C 
BRANCH 32 34
ATOM     34  C   ALA E  13      -5.178  18.497  -3.311  1.00 65.29 LIG 0.24  C 
ATOM     35  N   ALA E  14      -6.304  18.367  -2.619  1.00 85.74 LIG-0.35  N 
ATOM     36 H    ALA E  14      -6.366  18.534  -1.779  1.00 85.74 LIG 0.16  HD
ATOM     37 O    ALA E  13      -5.095  18.264  -4.520  1.00 75.52 LIG-0.27  OA
BRANCH 35 38
ATOM     38  CA  ALA E  14      -7.547  17.924  -3.225  1.00 94.46 LIG 0.16  C 
ATOM     39  CB  ALA E  14      -8.306  17.036  -2.266  1.00106.12 LIG 0.04  C 
BRANCH 38 40
ATOM     40  C   ALA E  14      -8.396  19.124  -3.630  1.00 99.07 LIG 0.22  C 
ATOM     41 O    ALA E  14      -7.912  20.256  -3.663  1.00120.33 LIG-0.29  OA
ENDBRANCH 38 40
ENDBRANCH 35 38
ENDBRANCH 32 34
ENDBRANCH 29 32
ENDBRANCH 26 28
ENDBRANCH 23 26
ENDBRANCH 1 22
TORSDOF 13
ENDMDL
MODEL 139
USER: ADFR SOLUTION from run 67
USER: SCORE 5.111769 LL:  -2.630 LR:  -3.842 RR:   0.000 FEB:   0.035
USER: RMSD 4.678831
USER: SEED 66
USER: STATUS searching
USER: GENES 15
USER: genes 0 Translation |==|  0.56943 0.25236 0.56796
USER: genes 1 Rotation |==|  0.77035 0.66303 0.59825 0.87507
USER: genes 2 Torsion [CB]-CA--N-[C] |==|  0.18824
USER: genes 3 Torsion [N]-C--CA-[N] |==|  0.47741
USER: genes 4 Torsion [C]-CA--N-[C] |==|  0.57776
USER: genes 5 Torsion [N]-C--CA-[N] |==|  0.19969
USER: genes 6 Torsion [C]-CA--N-[C] |==|  0.79030
USER: genes 7 Torsion [N]-C--CA-[N] |==|  0.58164
USER: genes 8 Torsion [N]-CA--C-[N] |==|  0.13092
USER: genes 9 Torsion [C]-N--CA-[CB] |==|  0.18889
USER: genes 10 Torsion [N]-CA--C-[N] |==|  0.10101
USER: genes 11 Torsion [C]-N--CA-[CB] |==|  0.18075
USER: genes 12 Torsion [N]-CA--C-[N] |==|  0.11603
USER: genes 13 Torsion [C]-N--CA-[C] |==|  0.17246
USER: genes 14 Torsion [N]-CA--C-[O] |==|  0.07271
ROOT
ATOM      1  CA  ALA E  11       0.342  19.171   2.417  1.00 85.35 LIG 0.17  C 
ATOM      2  CB  ALA E  11       0.547  17.985   3.362  1.00 80.46 LIG 0.04  C 
ENDROOT
BRANCH 1 3
ATOM      3  N   ALA E  11       0.796  20.403   3.053  1.00 87.15 LIG-0.35  N 
ATOM      4  C   ALA E  10       2.094  20.597   3.302  1.00 62.15 LIG 0.24  C 
ATOM      5 O    ALA E  10       2.970  19.866   2.837  1.00 65.72 LIG-0.27  OA
ATOM      6 H    ALA E  11       0.174  20.966   3.243  1.00 87.15 LIG 0.16  HD
BRANCH 4 7
ATOM      7  CA  ALA E  10       2.472  21.775   4.193  1.00 66.45 LIG 0.17  C 
ATOM      8  CB  ALA E  10       2.118  23.094   3.508  1.00 58.63 LIG 0.04  C 
BRANCH 7 9
ATOM      9  N   ALA E  10       3.886  21.764   4.538  1.00 75.43 LIG-0.35  N 
ATOM     10  C   ALA E   9       4.362  22.295   5.662  1.00 82.21 LIG 0.24  C 
ATOM     11 O    ALA E   9       3.655  22.874   6.495  1.00 73.75 LIG-0.27  OA
ATOM     12 H    ALA E  10       4.384  21.383   3.949  1.00 75.43 LIG 0.16  HD
BRANCH 10 13
ATOM     13  CA  ALA E   9       5.866  22.183   5.871  1.00 87.65 LIG 0.17  C 
ATOM     14  CB  ALA E   9       6.244  22.498   7.317  1.00 72.21 LIG 0.04  C 
BRANCH 13 15
ATOM     15  N   ALA E   9       6.517  23.095   4.939  1.00 84.24 LIG-0.35  N 
ATOM     16 H    ALA E   9       6.819  23.813   5.303  1.00 84.24 LIG 0.16  HD
ATOM     17  C   ALA E   8       6.627  22.826   3.645  1.00 61.40 LIG 0.26  C 
ATOM     18 O    ALA E   8       6.274  21.754   3.157  1.00 66.21 LIG-0.27  OA
BRANCH 17 19
ATOM     19  CA  ALA E   8       7.251  23.915   2.779  1.00 67.03 LIG 0.40  C 
ATOM     20  N   ALA E   8       6.711  23.856   1.387  1.00 60.26 LIG 0.61  N 
ATOM     21  CB  ALA E   8       7.005  25.292   3.386  1.00 64.64 LIG 0.06  C 
ENDBRANCH 17 19
ENDBRANCH 13 15
ENDBRANCH 10 13
ENDBRANCH 7 9
ENDBRANCH 4 7
ENDBRANCH 1 3
BRANCH 1 22
ATOM     22  C   ALA E  11      -1.120  19.265   1.998  1.00 81.78 LIG 0.24  C 
ATOM     23  N   ALA E  12      -1.503  20.362   1.346  1.00 82.91 LIG-0.35  N 
ATOM     24 H    ALA E  12      -0.968  20.967   1.048  1.00 82.91 LIG 0.16  HD
ATOM     25 O    ALA E  11      -1.912  18.356   2.270  1.00 89.30 LIG-0.27  OA
BRANCH 23 26
ATOM     26  CA  ALA E  12      -2.916  20.606   1.088  1.00 61.10 LIG 0.17  C 
ATOM     27  CB  ALA E  12      -3.667  20.890   2.398  1.00 65.27 LIG 0.04  C 
BRANCH 26 28
ATOM     28  C   ALA E  12      -3.089  21.761   0.115  1.00 54.59 LIG 0.24  C 
ATOM     29  N   ALA E  13      -2.164  21.827  -0.843  1.00 64.78 LIG-0.35  N 
ATOM     30 H    ALA E  13      -1.549  21.236  -0.955  1.00 64.78 LIG 0.16  HD
ATOM     31 O    ALA E  12      -4.042  22.539   0.203  1.00 69.11 LIG-0.27  OA
BRANCH 29 32
ATOM     32  CA  ALA E  13      -2.116  22.926  -1.794  1.00 54.23 LIG 0.17  C 
ATOM     33  CB  ALA E  13      -1.799  24.233  -1.068  1.00 56.27 LIG 0.04  C 
BRANCH 32 34
ATOM     34  C   ALA E  13      -1.069  22.712  -2.873  1.00 65.29 LIG 0.24  C 
ATOM     35  N   ALA E  14      -0.999  21.478  -3.359  1.00 85.74 LIG-0.35  N 
ATOM     36 H    ALA E  14      -1.478  20.826  -3.068  1.00 85.74 LIG 0.16  HD
ATOM     37 O    ALA E  13      -0.386  23.647  -3.298  1.00 75.52 LIG-0.27  OA
BRANCH 35 38
ATOM     38  CA  ALA E  14      -0.097  21.113  -4.436  1.00 94.46 LIG 0.16  C 
ATOM     39  CB  ALA E  14      -0.412  21.920  -5.675  1.00106.12 LIG 0.04  C 
BRANCH 38 40
ATOM     40  C   ALA E  14       1.351  21.328  -4.011  1.00 99.07 LIG 0.22  C 
ATOM     41 O    ALA E  14       1.672  21.285  -2.823  1.00120.33 LIG-0.29  OA
ENDBRANCH 38 40
ENDBRANCH 35 38
ENDBRANCH 32 34
ENDBRANCH 29 32
ENDBRANCH 26 28
ENDBRANCH 23 26
ENDBRANCH 1 22
TORSDOF 13
ENDMDL
MODEL 140
USER: ADFR SOLUTION from run 20
USER: SCORE 4.326302 LL:  -2.443 LR:  -3.833 RR:   0.000 FEB:   0.045
USER: RMSD 3.691936
USER: SEED 19
USER: STATUS searching
USER: GENES 15
USER: genes 0 Translation |==|  0.56656 0.25917 0.56656
USER: genes 1 Rotation |==|  0.68962 0.52663 0.57196 0.95624
USER: genes 2 Torsion [CB]-CA--N-[C] |==|  0.23179
USER: genes 3 Torsion [N]-C--CA-[N] |==|  0.53683
USER: genes 4 Torsion [C]-CA--N-[C] |==|  0.61624
USER: genes 5 Torsion [N]-C--CA-[N] |==|  0.18702
USER: genes 6 Torsion [C]-CA--N-[C] |==|  0.78889
USER: genes 7 Torsion [N]-C--CA-[N] |==|  0.55804
USER: genes 8 Torsion [N]-CA--C-[N] |==|  0.93569
USER: genes 9 Torsion [C]-N--CA-[CB] |==|  0.84365
USER: genes 10 Torsion [N]-CA--C-[N] |==|  0.39790
USER: genes 11 Torsion [C]-N--CA-[CB] |==|  0.17222
USER: genes 12 Torsion [N]-CA--C-[N] |==|  0.10071
USER: genes 13 Torsion [C]-N--CA-[C] |==|  0.56622
USER: genes 14 Torsion [N]-CA--C-[O] |==|  0.99209
ROOT
ATOM      1  CA  ALA E  11       0.278  19.294   2.392  1.00 85.35 LIG 0.17  C 
ATOM      2  CB  ALA E  11      -0.439  18.585   3.543  1.00 80.46 LIG 0.04  C 
ENDROOT
BRANCH 1 3
ATOM      3  N   ALA E  11       0.865  20.545   2.861  1.00 87.15 LIG-0.35  N 
ATOM      4  C   ALA E  10       2.058  20.548   3.461  1.00 62.15 LIG 0.24  C 
ATOM      5 O    ALA E  10       2.796  19.562   3.465  1.00 65.72 LIG-0.27  OA
ATOM      6 H    ALA E  11       0.388  21.246   2.718  1.00 87.15 LIG 0.16  HD
BRANCH 4 7
ATOM      7  CA  ALA E  10       2.495  21.834   4.152  1.00 66.45 LIG 0.17  C 
ATOM      8  CB  ALA E  10       2.190  23.042   3.268  1.00 58.63 LIG 0.04  C 
BRANCH 7 9
ATOM      9  N   ALA E  10       3.910  21.816   4.492  1.00 75.43 LIG-0.35  N 
ATOM     10  C   ALA E   9       4.383  22.268   5.651  1.00 82.21 LIG 0.24  C 
ATOM     11 O    ALA E   9       3.672  22.772   6.527  1.00 73.75 LIG-0.27  OA
ATOM     12 H    ALA E  10       4.411  21.488   3.874  1.00 75.43 LIG 0.16  HD
BRANCH 10 13
ATOM     13  CA  ALA E   9       5.890  22.160   5.846  1.00 87.65 LIG 0.17  C 
ATOM     14  CB  ALA E   9       6.281  22.481   7.287  1.00 72.21 LIG 0.04  C 
BRANCH 13 15
ATOM     15  N   ALA E   9       6.529  23.071   4.905  1.00 84.24 LIG-0.35  N 
ATOM     16 H    ALA E   9       6.826  23.795   5.262  1.00 84.24 LIG 0.16  HD
ATOM     17  C   ALA E   8       6.636  22.795   3.612  1.00 61.40 LIG 0.26  C 
ATOM     18 O    ALA E   8       6.291  21.716   3.133  1.00 66.21 LIG-0.27  OA
BRANCH 17 19
ATOM     19  CA  ALA E   8       7.248  23.884   2.736  1.00 67.03 LIG 0.40  C 
ATOM     20  N   ALA E   8       6.864  23.687   1.306  1.00 60.26 LIG 0.61  N 
ATOM     21  CB  ALA E   8       6.817  25.265   3.216  1.00 64.64 LIG 0.06  C 
ENDBRANCH 17 19
ENDBRANCH 13 15
ENDBRANCH 10 13
ENDBRANCH 7 9
ENDBRANCH 4 7
ENDBRANCH 1 3
BRANCH 1 22
ATOM     22  C   ALA E  11      -0.686  19.528   1.235  1.00 81.78 LIG 0.24  C 
ATOM     23  N   ALA E  12      -1.225  20.741   1.120  1.00 82.91 LIG-0.35  N 
ATOM     24 H    ALA E  12      -0.988  21.428   1.580  1.00 82.91 LIG 0.16  HD
ATOM     25 O    ALA E  11      -0.958  18.614   0.447  1.00 89.30 LIG-0.27  OA
BRANCH 23 26
ATOM     26  CA  ALA E  12      -2.296  20.979   0.162  1.00 61.10 LIG 0.17  C 
ATOM     27  CB  ALA E  12      -1.857  20.584  -1.256  1.00 65.27 LIG 0.04  C 
BRANCH 26 28
ATOM     28  C   ALA E  12      -3.549  20.215   0.563  1.00 54.59 LIG 0.24  C 
ATOM     29  N   ALA E  13      -4.693  20.855   0.323  1.00 64.78 LIG-0.35  N 
ATOM     30 H    ALA E  13      -4.742  21.611  -0.084  1.00 64.78 LIG 0.16  HD
ATOM     31 O    ALA E  12      -3.485  19.077   1.035  1.00 69.11 LIG-0.27  OA
BRANCH 29 32
ATOM     32  CA  ALA E  13      -5.979  20.317   0.738  1.00 54.23 LIG 0.17  C 
ATOM     33  CB  ALA E  13      -6.026  20.190   2.261  1.00 56.27 LIG 0.04  C 
BRANCH 32 34
ATOM     34  C   ALA E  13      -7.141  21.188   0.295  1.00 65.29 LIG 0.24  C 
ATOM     35  N   ALA E  14      -6.997  21.765  -0.893  1.00 85.74 LIG-0.35  N 
ATOM     36 H    ALA E  14      -6.288  21.691  -1.373  1.00 85.74 LIG 0.16  HD
ATOM     37 O    ALA E  13      -8.163  21.290   0.978  1.00 75.52 LIG-0.27  OA
BRANCH 35 38
ATOM     38  CA  ALA E  14      -8.035  22.582  -1.496  1.00 94.46 LIG 0.16  C 
ATOM     39  CB  ALA E  14      -7.992  23.982  -0.927  1.00106.12 LIG 0.04  C 
BRANCH 38 40
ATOM     40  C   ALA E  14      -7.870  22.614  -3.011  1.00 99.07 LIG 0.22  C 
ATOM     41 O    ALA E  14      -6.923  22.045  -3.554  1.00120.33 LIG-0.29  OA
ENDBRANCH 38 40
ENDBRANCH 35 38
ENDBRANCH 32 34
ENDBRANCH 29 32
ENDBRANCH 26 28
ENDBRANCH 23 26
ENDBRANCH 1 22
TORSDOF 13
ENDMDL
MODEL 141
USER: ADFR SOLUTION from run 67
USER: SCORE 5.044016 LL:  -2.533 LR:  -3.832 RR:   0.000 FEB:   0.046
USER: RMSD 4.486185
USER: SEED 66
USER: STATUS searching
USER: GENES 15
USER: genes 0 Translation |==|  0.56944 0.25249 0.56795
USER: genes 1 Rotation |==|  0.77028 0.66309 0.59821 0.87511
USER: genes 2 Torsion [CB]-CA--N-[C] |==|  0.18826
USER: genes 3 Torsion [N]-C--CA-[N] |==|  0.47733
USER: genes 4 Torsion [C]-CA--N-[C] |==|  0.57773
USER: genes 5 Torsion [N]-C--CA-[N] |==|  0.19961
USER: genes 6 Torsion [C]-CA--N-[C] |==|  0.79023
USER: genes 7 Torsion [N]-C--CA-[N] |==|  0.58162
USER: genes 8 Torsion [N]-CA--C-[N] |==|  0.08268
USER: genes 9 Torsion [C]-N--CA-[CB] |==|  0.51111
USER: genes 10 Torsion [N]-CA--C-[N] |==|  0.42149
USER: genes 11 Torsion [C]-N--CA-[CB] |==|  0.17168
USER: genes 12 Torsion [N]-CA--C-[N] |==|  0.10141
USER: genes 13 Torsion [C]-N--CA-[C] |==|  0.54788
USER: genes 14 Torsion [N]-CA--C-[O] |==|  0.95052
ROOT
ATOM      1  CA  ALA E  11       0.342  19.174   2.417  1.00 85.35 LIG 0.17  C 
ATOM      2  CB  ALA E  11       0.547  17.988   3.362  1.00 80.46 LIG 0.04  C 
ENDROOT
BRANCH 1 3
ATOM      3  N   ALA E  11       0.796  20.406   3.052  1.00 87.15 LIG-0.35  N 
ATOM      4  C   ALA E  10       2.094  20.600   3.301  1.00 62.15 LIG 0.24  C 
ATOM      5 O    ALA E  10       2.970  19.869   2.836  1.00 65.72 LIG-0.27  OA
ATOM      6 H    ALA E  11       0.174  20.969   3.242  1.00 87.15 LIG 0.16  HD
BRANCH 4 7
ATOM      7  CA  ALA E  10       2.473  21.778   4.191  1.00 66.45 LIG 0.17  C 
ATOM      8  CB  ALA E  10       2.119  23.097   3.505  1.00 58.63 LIG 0.04  C 
BRANCH 7 9
ATOM      9  N   ALA E  10       3.886  21.767   4.537  1.00 75.43 LIG-0.35  N 
ATOM     10  C   ALA E   9       4.362  22.299   5.660  1.00 82.21 LIG 0.24  C 
ATOM     11 O    ALA E   9       3.655  22.878   6.493  1.00 73.75 LIG-0.27  OA
ATOM     12 H    ALA E  10       4.385  21.386   3.948  1.00 75.43 LIG 0.16  HD
BRANCH 10 13
ATOM     13  CA  ALA E   9       5.866  22.187   5.869  1.00 87.65 LIG 0.17  C 
ATOM     14  CB  ALA E   9       6.244  22.504   7.315  1.00 72.21 LIG 0.04  C 
BRANCH 13 15
ATOM     15  N   ALA E   9       6.518  23.097   4.936  1.00 84.24 LIG-0.35  N 
ATOM     16 H    ALA E   9       6.819  23.816   5.299  1.00 84.24 LIG 0.16  HD
ATOM     17  C   ALA E   8       6.628  22.827   3.643  1.00 61.40 LIG 0.26  C 
ATOM     18 O    ALA E   8       6.276  21.754   3.156  1.00 66.21 LIG-0.27  OA
BRANCH 17 19
ATOM     19  CA  ALA E   8       7.253  23.915   2.776  1.00 67.03 LIG 0.40  C 
ATOM     20  N   ALA E   8       6.714  23.854   1.384  1.00 60.26 LIG 0.61  N 
ATOM     21  CB  ALA E   8       7.006  25.293   3.381  1.00 64.64 LIG 0.06  C 
ENDBRANCH 17 19
ENDBRANCH 13 15
ENDBRANCH 10 13
ENDBRANCH 7 9
ENDBRANCH 4 7
ENDBRANCH 1 3
BRANCH 1 22
ATOM     22  C   ALA E  11      -1.119  19.268   1.998  1.00 81.78 LIG 0.24  C 
ATOM     23  N   ALA E  12      -1.590  20.471   1.674  1.00 82.91 LIG-0.35  N 
ATOM     24 H    ALA E  12      -1.107  21.176   1.578  1.00 82.91 LIG 0.16  HD
ATOM     25 O    ALA E  11      -1.834  18.258   1.975  1.00 89.30 LIG-0.27  OA
BRANCH 23 26
ATOM     26  CA  ALA E  12      -3.017  20.665   1.455  1.00 61.10 LIG 0.17  C 
ATOM     27  CB  ALA E  12      -3.308  22.103   0.998  1.00 65.27 LIG 0.04  C 
BRANCH 26 28
ATOM     28  C   ALA E  12      -3.540  19.667   0.433  1.00 54.59 LIG 0.24  C 
ATOM     29  N   ALA E  13      -4.825  19.343   0.576  1.00 64.78 LIG-0.35  N 
ATOM     30 H    ALA E  13      -5.349  19.708   1.152  1.00 64.78 LIG 0.16  HD
ATOM     31 O    ALA E  12      -2.820  19.236  -0.472  1.00 69.11 LIG-0.27  OA
BRANCH 29 32
ATOM     32  CA  ALA E  13      -5.460  18.328  -0.248  1.00 54.23 LIG 0.17  C 
ATOM     33  CB  ALA E  13      -4.785  16.975  -0.022  1.00 56.27 LIG 0.04  C 
BRANCH 32 34
ATOM     34  C   ALA E  13      -6.940  18.179   0.055  1.00 65.29 LIG 0.24  C 
ATOM     35  N   ALA E  14      -7.576  19.308   0.346  1.00 85.74 LIG-0.35  N 
ATOM     36 H    ALA E  14      -7.185  20.072   0.400  1.00 85.74 LIG 0.16  HD
ATOM     37 O    ALA E  13      -7.506  17.086  -0.030  1.00 75.52 LIG-0.27  OA
BRANCH 35 38
ATOM     38  CA  ALA E  14      -9.004  19.358   0.602  1.00 94.46 LIG 0.16  C 
ATOM     39  CB  ALA E  14      -9.306  18.798   1.974  1.00106.12 LIG 0.04  C 
BRANCH 38 40
ATOM     40  C   ALA E  14      -9.514  20.790   0.485  1.00 99.07 LIG 0.22  C 
ATOM     41 O    ALA E  14      -8.736  21.742   0.533  1.00120.33 LIG-0.29  OA
ENDBRANCH 38 40
ENDBRANCH 35 38
ENDBRANCH 32 34
ENDBRANCH 29 32
ENDBRANCH 26 28
ENDBRANCH 23 26
ENDBRANCH 1 22
TORSDOF 13
ENDMDL
MODEL 142
USER: ADFR SOLUTION from run 86
USER: SCORE 3.835957 LL:  -2.479 LR:  -3.816 RR:   0.000 FEB:   0.062
USER: RMSD 4.328398
USER: SEED 85
USER: STATUS no improvement in best in 62 clusters for 5 generations
USER: GENES 15
USER: genes 0 Translation |==|  0.68600 0.33940 0.59973
USER: genes 1 Rotation |==|  0.73722 0.54790 0.58183 0.92981
USER: genes 2 Torsion [CB]-CA--N-[C] |==|  0.19136
USER: genes 3 Torsion [N]-C--CA-[N] |==|  0.07271
USER: genes 4 Torsion [C]-CA--N-[C] |==|  0.61963
USER: genes 5 Torsion [N]-C--CA-[N] |==|  0.41293
USER: genes 6 Torsion [C]-CA--N-[C] |==|  0.62828
USER: genes 7 Torsion [N]-C--CA-[N] |==|  0.65795
USER: genes 8 Torsion [N]-CA--C-[N] |==|  0.86080
USER: genes 9 Torsion [C]-N--CA-[CB] |==|  0.17421
USER: genes 10 Torsion [N]-CA--C-[N] |==|  0.59260
USER: genes 11 Torsion [C]-N--CA-[CB] |==|  0.84263
USER: genes 12 Torsion [N]-CA--C-[N] |==|  0.38039
USER: genes 13 Torsion [C]-N--CA-[C] |==|  0.66289
USER: genes 14 Torsion [N]-CA--C-[O] |==|  0.95814
ROOT
ATOM      1  CA  ALA E  11       2.965  20.738   2.989  1.00 85.35 LIG 0.17  C 
ATOM      2  CB  ALA E  11       2.416  19.758   4.028  1.00 80.46 LIG 0.04  C 
ENDROOT
BRANCH 1 3
ATOM      3  N   ALA E  11       3.517  21.915   3.652  1.00 87.15 LIG-0.35  N 
ATOM      4  C   ALA E  10       4.631  21.819   4.382  1.00 62.15 LIG 0.24  C 
ATOM      5 O    ALA E  10       5.345  20.815   4.366  1.00 65.72 LIG-0.27  OA
ATOM      6 H    ALA E  11       3.074  22.642   3.531  1.00 87.15 LIG 0.16  HD
BRANCH 4 7
ATOM      7  CA  ALA E  10       5.009  23.013   5.251  1.00 66.45 LIG 0.17  C 
ATOM      8  CB  ALA E  10       5.742  22.544   6.507  1.00 58.63 LIG 0.04  C 
BRANCH 7 9
ATOM      9  N   ALA E  10       3.845  23.803   5.626  1.00 75.43 LIG-0.35  N 
ATOM     10  C   ALA E   9       3.835  25.134   5.604  1.00 82.21 LIG 0.24  C 
ATOM     11 O    ALA E   9       4.818  25.818   5.298  1.00 73.75 LIG-0.27  OA
ATOM     12 H    ALA E  10       3.167  23.330   5.862  1.00 75.43 LIG 0.16  HD
BRANCH 10 13
ATOM     13  CA  ALA E   9       2.528  25.799   6.014  1.00 87.65 LIG 0.17  C 
ATOM     14  CB  ALA E   9       1.608  25.990   4.810  1.00 72.21 LIG 0.04  C 
BRANCH 13 15
ATOM     15  N   ALA E   9       2.852  27.073   6.644  1.00 84.24 LIG-0.35  N 
ATOM     16 H    ALA E   9       3.432  27.540   6.213  1.00 84.24 LIG 0.16  HD
ATOM     17  C   ALA E   8       2.294  27.464   7.781  1.00 61.40 LIG 0.26  C 
ATOM     18 O    ALA E   8       1.399  26.828   8.334  1.00 66.21 LIG-0.27  OA
BRANCH 17 19
ATOM     19  CA  ALA E   8       2.800  28.779   8.366  1.00 67.03 LIG 0.40  C 
ATOM     20  N   ALA E   8       3.308  28.576   9.755  1.00 60.26 LIG 0.61  N 
ATOM     21  CB  ALA E   8       3.890  29.376   7.483  1.00 64.64 LIG 0.06  C 
ENDBRANCH 17 19
ENDBRANCH 13 15
ENDBRANCH 10 13
ENDBRANCH 7 9
ENDBRANCH 4 7
ENDBRANCH 1 3
BRANCH 1 22
ATOM     22  C   ALA E  11       1.875  21.117   1.994  1.00 81.78 LIG 0.24  C 
ATOM     23  N   ALA E  12       0.907  21.926   2.422  1.00 82.91 LIG-0.35  N 
ATOM     24 H    ALA E  12       0.909  22.336   3.178  1.00 82.91 LIG 0.16  HD
ATOM     25 O    ALA E  11       1.895  20.674   0.840  1.00 89.30 LIG-0.27  OA
BRANCH 23 26
ATOM     26  CA  ALA E  12      -0.264  22.171   1.590  1.00 61.10 LIG 0.17  C 
ATOM     27  CB  ALA E  12      -1.047  20.870   1.356  1.00 65.27 LIG 0.04  C 
BRANCH 26 28
ATOM     28  C   ALA E  12      -1.159  23.223   2.226  1.00 54.59 LIG 0.24  C 
ATOM     29  N   ALA E  13      -2.463  23.052   2.009  1.00 64.78 LIG-0.35  N 
ATOM     30 H    ALA E  13      -2.794  22.371   1.601  1.00 64.78 LIG 0.16  HD
ATOM     31 O    ALA E  12      -0.692  24.132   2.916  1.00 69.11 LIG-0.27  OA
BRANCH 29 32
ATOM     32  CA  ALA E  13      -3.452  24.020   2.455  1.00 54.23 LIG 0.17  C 
ATOM     33  CB  ALA E  13      -3.329  24.235   3.964  1.00 56.27 LIG 0.04  C 
BRANCH 32 34
ATOM     34  C   ALA E  13      -3.298  25.364   1.767  1.00 65.29 LIG 0.24  C 
ATOM     35  N   ALA E  14      -4.432  25.931   1.370  1.00 85.74 LIG-0.35  N 
ATOM     36 H    ALA E  14      -5.202  25.560   1.455  1.00 85.74 LIG 0.16  HD
ATOM     37 O    ALA E  13      -2.194  25.902   1.650  1.00 75.52 LIG-0.27  OA
BRANCH 35 38
ATOM     38  CA  ALA E  14      -4.474  27.243   0.750  1.00 94.46 LIG 0.16  C 
ATOM     39  CB  ALA E  14      -4.983  27.131  -0.669  1.00106.12 LIG 0.04  C 
BRANCH 38 40
ATOM     40  C   ALA E  14      -5.355  28.185   1.562  1.00 99.07 LIG 0.22  C 
ATOM     41 O    ALA E  14      -6.126  27.747   2.417  1.00120.33 LIG-0.29  OA
ENDBRANCH 38 40
ENDBRANCH 35 38
ENDBRANCH 32 34
ENDBRANCH 29 32
ENDBRANCH 26 28
ENDBRANCH 23 26
ENDBRANCH 1 22
TORSDOF 13
ENDMDL
MODEL 143
USER: ADFR SOLUTION from run 6
USER: SCORE 4.477256 LL:  -3.019 LR:  -3.807 RR:   0.000 FEB:   0.071
USER: RMSD 4.407798
USER: SEED 322608
USER: STATUS no improvement in best in 62 clusters for 5 generations
USER: GENES 15
USER: genes 0 Translation |==|  0.62015 0.31422 0.62363
USER: genes 1 Rotation |==|  0.42848 0.35451 0.53890 0.97138
USER: genes 2 Torsion [CB]-CA--N-[C] |==|  0.39152
USER: genes 3 Torsion [N]-C--CA-[N] |==|  0.14713
USER: genes 4 Torsion [C]-CA--N-[C] |==|  0.17778
USER: genes 5 Torsion [N]-C--CA-[N] |==|  0.98264
USER: genes 6 Torsion [C]-CA--N-[C] |==|  0.78091
USER: genes 7 Torsion [N]-C--CA-[N] |==|  0.32411
USER: genes 8 Torsion [N]-CA--C-[N] |==|  0.99166
USER: genes 9 Torsion [C]-N--CA-[CB] |==|  0.82129
USER: genes 10 Torsion [N]-CA--C-[N] |==|  0.35436
USER: genes 11 Torsion [C]-N--CA-[CB] |==|  0.86576
USER: genes 12 Torsion [N]-CA--C-[N] |==|  0.92718
USER: genes 13 Torsion [C]-N--CA-[C] |==|  0.57280
USER: genes 14 Torsion [N]-CA--C-[O] |==|  0.02363
ROOT
ATOM      1  CA  ALA E  11       1.483  20.285   3.419  1.00 85.35 LIG 0.17  C 
ATOM      2  CB  ALA E  11       0.074  20.810   3.701  1.00 80.46 LIG 0.04  C 
ENDROOT
BRANCH 1 3
ATOM      3  N   ALA E  11       2.415  21.398   3.277  1.00 87.15 LIG-0.35  N 
ATOM      4  C   ALA E  10       3.649  21.315   3.781  1.00 62.15 LIG 0.24  C 
ATOM      5 O    ALA E  10       4.122  20.255   4.194  1.00 65.72 LIG-0.27  OA
ATOM      6 H    ALA E  11       2.104  22.082   2.857  1.00 87.15 LIG 0.16  HD
BRANCH 4 7
ATOM      7  CA  ALA E  10       4.478  22.594   3.828  1.00 66.45 LIG 0.17  C 
ATOM      8  CB  ALA E  10       5.811  22.337   4.530  1.00 58.63 LIG 0.04  C 
BRANCH 7 9
ATOM      9  N   ALA E  10       3.771  23.677   4.495  1.00 75.43 LIG-0.35  N 
ATOM     10  C   ALA E   9       3.427  23.634   5.781  1.00 82.21 LIG 0.24  C 
ATOM     11 O    ALA E   9       3.645  22.663   6.513  1.00 73.75 LIG-0.27  OA
ATOM     12 H    ALA E  10       3.596  24.345   3.983  1.00 75.43 LIG 0.16  HD
BRANCH 10 13
ATOM     13  CA  ALA E   9       2.703  24.861   6.320  1.00 87.65 LIG 0.17  C 
ATOM     14  CB  ALA E   9       1.284  24.510   6.763  1.00 72.21 LIG 0.04  C 
BRANCH 13 15
ATOM     15  N   ALA E   9       2.699  25.875   5.274  1.00 84.24 LIG-0.35  N 
ATOM     16 H    ALA E   9       1.955  25.937   4.847  1.00 84.24 LIG 0.16  HD
ATOM     17  C   ALA E   8       3.758  26.629   5.014  1.00 61.40 LIG 0.26  C 
ATOM     18 O    ALA E   8       4.781  26.594   5.694  1.00 66.21 LIG-0.27  OA
BRANCH 17 19
ATOM     19  CA  ALA E   8       3.634  27.584   3.830  1.00 67.03 LIG 0.40  C 
ATOM     20  N   ALA E   8       3.732  29.003   4.285  1.00 60.26 LIG 0.61  N 
ATOM     21  CB  ALA E   8       4.704  27.286   2.785  1.00 64.64 LIG 0.06  C 
ENDBRANCH 17 19
ENDBRANCH 13 15
ENDBRANCH 10 13
ENDBRANCH 7 9
ENDBRANCH 4 7
ENDBRANCH 1 3
BRANCH 1 22
ATOM     22  C   ALA E  11       1.478  19.400   2.179  1.00 81.78 LIG 0.24  C 
ATOM     23  N   ALA E  12       2.239  19.775   1.152  1.00 82.91 LIG-0.35  N 
ATOM     24 H    ALA E  12       2.814  20.415   1.177  1.00 82.91 LIG 0.16  HD
ATOM     25 O    ALA E  11       0.778  18.381   2.136  1.00 89.30 LIG-0.27  OA
BRANCH 23 26
ATOM     26  CA  ALA E  12       2.133  19.089  -0.128  1.00 61.10 LIG 0.17  C 
ATOM     27  CB  ALA E  12       2.571  17.623   0.002  1.00 65.27 LIG 0.04  C 
BRANCH 26 28
ATOM     28  C   ALA E  12       0.712  19.174  -0.663  1.00 54.59 LIG 0.24  C 
ATOM     29  N   ALA E  13       0.611  19.634  -1.910  1.00 64.78 LIG-0.35  N 
ATOM     30 H    ALA E  13       1.288  19.812  -2.410  1.00 64.78 LIG 0.16  HD
ATOM     31 O    ALA E  12      -0.252  18.804   0.012  1.00 69.11 LIG-0.27  OA
BRANCH 29 32
ATOM     32  CA  ALA E  13      -0.677  19.878  -2.540  1.00 54.23 LIG 0.17  C 
ATOM     33  CB  ALA E  13      -1.593  18.670  -2.342  1.00 56.27 LIG 0.04  C 
BRANCH 32 34
ATOM     34  C   ALA E  13      -1.374  21.104  -1.977  1.00 65.29 LIG 0.24  C 
ATOM     35  N   ALA E  14      -1.043  21.422  -0.730  1.00 85.74 LIG-0.35  N 
ATOM     36 H    ALA E  14      -0.504  20.956  -0.250  1.00 85.74 LIG 0.16  HD
ATOM     37 O    ALA E  13      -2.143  21.778  -2.666  1.00 75.52 LIG-0.27  OA
BRANCH 35 38
ATOM     38  CA  ALA E  14      -1.568  22.596  -0.057  1.00 94.46 LIG 0.16  C 
ATOM     39  CB  ALA E  14      -2.922  22.291   0.543  1.00106.12 LIG 0.04  C 
BRANCH 38 40
ATOM     40  C   ALA E  14      -0.599  23.067   1.021  1.00 99.07 LIG 0.22  C 
ATOM     41 O    ALA E  14       0.524  22.571   1.119  1.00120.33 LIG-0.29  OA
ENDBRANCH 38 40
ENDBRANCH 35 38
ENDBRANCH 32 34
ENDBRANCH 29 32
ENDBRANCH 26 28
ENDBRANCH 23 26
ENDBRANCH 1 22
TORSDOF 13
ENDMDL
MODEL 144
USER: ADFR SOLUTION from run 166
USER: SCORE 5.059578 LL:  -2.771 LR:  -3.814 RR:   0.000 FEB:   0.064
USER: RMSD 4.106114
USER: SEED 165
USER: STATUS no improvement in best in 98 clusters for 5 generations
USER: GENES 15
USER: genes 0 Translation |==|  0.65475 0.38033 0.57766
USER: genes 1 Rotation |==|  0.81059 0.69361 0.45743 0.83799
USER: genes 2 Torsion [CB]-CA--N-[C] |==|  0.15350
USER: genes 3 Torsion [N]-C--CA-[N] |==|  0.13173
USER: genes 4 Torsion [C]-CA--N-[C] |==|  0.17518
USER: genes 5 Torsion [N]-C--CA-[N] |==|  0.17795
USER: genes 6 Torsion [C]-CA--N-[C] |==|  0.76730
USER: genes 7 Torsion [N]-C--CA-[N] |==|  0.50745
USER: genes 8 Torsion [N]-CA--C-[N] |==|  0.58352
USER: genes 9 Torsion [C]-N--CA-[CB] |==|  0.83287
USER: genes 10 Torsion [N]-CA--C-[N] |==|  0.40537
USER: genes 11 Torsion [C]-N--CA-[CB] |==|  0.18240
USER: genes 12 Torsion [N]-CA--C-[N] |==|  0.10198
USER: genes 13 Torsion [C]-N--CA-[C] |==|  0.76337
USER: genes 14 Torsion [N]-CA--C-[O] |==|  0.99392
ROOT
ATOM      1  CA  ALA E  11       2.262  21.475   2.592  1.00 85.35 LIG 0.17  C 
ATOM      2  CB  ALA E  11       2.431  20.221   3.452  1.00 80.46 LIG 0.04  C 
ENDROOT
BRANCH 1 3
ATOM      3  N   ALA E  11       3.365  22.400   2.831  1.00 87.15 LIG-0.35  N 
ATOM      4  C   ALA E  10       4.629  21.997   2.679  1.00 62.15 LIG 0.24  C 
ATOM      5 O    ALA E  10       4.920  20.925   2.146  1.00 65.72 LIG-0.27  OA
ATOM      6 H    ALA E  11       3.130  23.192   3.068  1.00 87.15 LIG 0.16  HD
BRANCH 4 7
ATOM      7  CA  ALA E  10       5.729  22.922   3.189  1.00 66.45 LIG 0.17  C 
ATOM      8  CB  ALA E  10       7.079  22.207   3.161  1.00 58.63 LIG 0.04  C 
BRANCH 7 9
ATOM      9  N   ALA E  10       5.454  23.403   4.534  1.00 75.43 LIG-0.35  N 
ATOM     10  C   ALA E   9       5.368  22.597   5.590  1.00 82.21 LIG 0.24  C 
ATOM     11 O    ALA E   9       5.480  21.368   5.519  1.00 73.75 LIG-0.27  OA
ATOM     12 H    ALA E  10       5.352  24.256   4.584  1.00 75.43 LIG 0.16  HD
BRANCH 10 13
ATOM     13  CA  ALA E   9       5.088  23.271   6.926  1.00 87.65 LIG 0.17  C 
ATOM     14  CB  ALA E   9       5.172  22.267   8.074  1.00 72.21 LIG 0.04  C 
BRANCH 13 15
ATOM     15  N   ALA E   9       3.769  23.886   6.850  1.00 84.24 LIG-0.35  N 
ATOM     16 H    ALA E   9       3.137  23.402   7.177  1.00 84.24 LIG 0.16  HD
ATOM     17  C   ALA E   8       3.576  25.086   6.321  1.00 61.40 LIG 0.26  C 
ATOM     18 O    ALA E   8       4.502  25.802   5.945  1.00 66.21 LIG-0.27  OA
BRANCH 17 19
ATOM     19  CA  ALA E   8       2.129  25.559   6.228  1.00 67.03 LIG 0.40  C 
ATOM     20  N   ALA E   8       2.053  26.891   5.557  1.00 60.26 LIG 0.61  N 
ATOM     21  CB  ALA E   8       1.276  24.539   5.482  1.00 64.64 LIG 0.06  C 
ENDBRANCH 17 19
ENDBRANCH 13 15
ENDBRANCH 10 13
ENDBRANCH 7 9
ENDBRANCH 4 7
ENDBRANCH 1 3
BRANCH 1 22
ATOM     22  C   ALA E  11       0.914  22.129   2.872  1.00 81.78 LIG 0.24  C 
ATOM     23  N   ALA E  12      -0.075  21.342   3.294  1.00 82.91 LIG-0.35  N 
ATOM     24 H    ALA E  12       0.019  20.519   3.525  1.00 82.91 LIG 0.16  HD
ATOM     25 O    ALA E  11       0.755  23.343   2.698  1.00 89.30 LIG-0.27  OA
BRANCH 23 26
ATOM     26  CA  ALA E  12      -1.432  21.861   3.392  1.00 61.10 LIG 0.17  C 
ATOM     27  CB  ALA E  12      -1.494  23.044   4.370  1.00 65.27 LIG 0.04  C 
BRANCH 26 28
ATOM     28  C   ALA E  12      -1.945  22.276   2.023  1.00 54.59 LIG 0.24  C 
ATOM     29  N   ALA E  13      -3.250  22.082   1.833  1.00 64.78 LIG-0.35  N 
ATOM     30 H    ALA E  13      -3.787  21.807   2.447  1.00 64.78 LIG 0.16  HD
ATOM     31 O    ALA E  12      -1.198  22.786   1.183  1.00 69.11 LIG-0.27  OA
BRANCH 29 32
ATOM     32  CA  ALA E  13      -3.888  22.326   0.549  1.00 54.23 LIG 0.17  C 
ATOM     33  CB  ALA E  13      -3.360  21.337  -0.491  1.00 56.27 LIG 0.04  C 
BRANCH 32 34
ATOM     34  C   ALA E  13      -5.398  22.187   0.617  1.00 65.29 LIG 0.24  C 
ATOM     35  N   ALA E  14      -5.957  22.623   1.740  1.00 85.74 LIG-0.35  N 
ATOM     36 H    ALA E  14      -5.508  22.929   2.405  1.00 85.74 LIG 0.16  HD
ATOM     37 O    ALA E  13      -6.046  21.756  -0.340  1.00 75.52 LIG-0.27  OA
BRANCH 35 38
ATOM     38  CA  ALA E  14      -7.394  22.622   1.949  1.00 94.46 LIG 0.16  C 
ATOM     39  CB  ALA E  14      -7.705  22.508   3.424  1.00106.12 LIG 0.04  C 
BRANCH 38 40
ATOM     40  C   ALA E  14      -8.015  23.887   1.367  1.00 99.07 LIG 0.22  C 
ATOM     41 O    ALA E  14      -7.311  24.754   0.850  1.00120.33 LIG-0.29  OA
ENDBRANCH 38 40
ENDBRANCH 35 38
ENDBRANCH 32 34
ENDBRANCH 29 32
ENDBRANCH 26 28
ENDBRANCH 23 26
ENDBRANCH 1 22
TORSDOF 13
ENDMDL
MODEL 145
USER: ADFR SOLUTION from run 170
USER: SCORE 4.827580 LL:  -3.066 LR:  -3.815 RR:   0.000 FEB:   0.063
USER: RMSD 4.933482
USER: SEED 169
USER: STATUS no improvement in best in 65 clusters for 5 generations
USER: GENES 15
USER: genes 0 Translation |==|  0.57220 0.23938 0.57885
USER: genes 1 Rotation |==|  0.72537 0.64089 0.58188 0.91552
USER: genes 2 Torsion [CB]-CA--N-[C] |==|  0.19633
USER: genes 3 Torsion [N]-C--CA-[N] |==|  0.48863
USER: genes 4 Torsion [C]-CA--N-[C] |==|  0.63317
USER: genes 5 Torsion [N]-C--CA-[N] |==|  0.17036
USER: genes 6 Torsion [C]-CA--N-[C] |==|  0.78810
USER: genes 7 Torsion [N]-C--CA-[N] |==|  0.33503
USER: genes 8 Torsion [N]-CA--C-[N] |==|  0.52778
USER: genes 9 Torsion [C]-N--CA-[CB] |==|  0.86332
USER: genes 10 Torsion [N]-CA--C-[N] |==|  0.83989
USER: genes 11 Torsion [C]-N--CA-[CB] |==|  0.16434
USER: genes 12 Torsion [N]-CA--C-[N] |==|  0.07985
USER: genes 13 Torsion [C]-N--CA-[C] |==|  0.56624
USER: genes 14 Torsion [N]-CA--C-[O] |==|  0.99079
ROOT
ATOM      1  CA  ALA E  11       0.404  18.938   2.613  1.00 85.35 LIG 0.17  C 
ATOM      2  CB  ALA E  11       0.404  17.990   3.814  1.00 80.46 LIG 0.04  C 
ENDROOT
BRANCH 1 3
ATOM      3  N   ALA E  11       0.886  20.255   3.014  1.00 87.15 LIG-0.35  N 
ATOM      4  C   ALA E  10       2.173  20.439   3.320  1.00 62.15 LIG 0.24  C 
ATOM      5 O    ALA E  10       3.034  19.589   3.088  1.00 65.72 LIG-0.27  OA
ATOM      6 H    ALA E  11       0.287  20.872   3.033  1.00 87.15 LIG 0.16  HD
BRANCH 4 7
ATOM      7  CA  ALA E  10       2.559  21.761   3.975  1.00 66.45 LIG 0.17  C 
ATOM      8  CB  ALA E  10       2.238  22.929   3.043  1.00 58.63 LIG 0.04  C 
BRANCH 7 9
ATOM      9  N   ALA E  10       3.967  21.796   4.341  1.00 75.43 LIG-0.35  N 
ATOM     10  C   ALA E   9       4.395  22.191   5.539  1.00 82.21 LIG 0.24  C 
ATOM     11 O    ALA E   9       3.642  22.595   6.432  1.00 73.75 LIG-0.27  OA
ATOM     12 H    ALA E  10       4.496  21.539   3.714  1.00 75.43 LIG 0.16  HD
BRANCH 10 13
ATOM     13  CA  ALA E   9       5.901  22.152   5.757  1.00 87.65 LIG 0.17  C 
ATOM     14  CB  ALA E   9       6.257  22.539   7.191  1.00 72.21 LIG 0.04  C 
BRANCH 13 15
ATOM     15  N   ALA E   9       6.517  23.055   4.793  1.00 84.24 LIG-0.35  N 
ATOM     16 H    ALA E   9       6.776  23.804   5.129  1.00 84.24 LIG 0.16  HD
ATOM     17  C   ALA E   8       6.659  22.737   3.514  1.00 61.40 LIG 0.26  C 
ATOM     18 O    ALA E   8       6.370  21.627   3.070  1.00 66.21 LIG-0.27  OA
BRANCH 17 19
ATOM     19  CA  ALA E   8       7.239  23.819   2.608  1.00 67.03 LIG 0.40  C 
ATOM     20  N   ALA E   8       8.500  23.345   1.963  1.00 60.26 LIG 0.61  N 
ATOM     21  CB  ALA E   8       6.223  24.234   1.549  1.00 64.64 LIG 0.06  C 
ENDBRANCH 17 19
ENDBRANCH 13 15
ENDBRANCH 10 13
ENDBRANCH 7 9
ENDBRANCH 4 7
ENDBRANCH 1 3
BRANCH 1 22
ATOM     22  C   ALA E  11      -0.989  19.015   2.002  1.00 81.78 LIG 0.24  C 
ATOM     23  N   ALA E  12      -1.628  17.868   1.782  1.00 82.91 LIG-0.35  N 
ATOM     24 H    ALA E  12      -1.362  17.098   2.058  1.00 82.91 LIG 0.16  HD
ATOM     25 O    ALA E  11      -1.491  20.109   1.715  1.00 89.30 LIG-0.27  OA
BRANCH 23 26
ATOM     26  CA  ALA E  12      -2.873  17.856   1.025  1.00 61.10 LIG 0.17  C 
ATOM     27  CB  ALA E  12      -3.846  18.918   1.560  1.00 65.27 LIG 0.04  C 
BRANCH 26 28
ATOM     28  C   ALA E  12      -2.601  18.081  -0.453  1.00 54.59 LIG 0.24  C 
ATOM     29  N   ALA E  13      -1.959  19.214  -0.737  1.00 64.78 LIG-0.35  N 
ATOM     30 H    ALA E  13      -1.658  19.755  -0.139  1.00 64.78 LIG 0.16  HD
ATOM     31 O    ALA E  12      -2.925  17.246  -1.302  1.00 69.11 LIG-0.27  OA
BRANCH 29 32
ATOM     32  CA  ALA E  13      -1.710  19.639  -2.105  1.00 54.23 LIG 0.17  C 
ATOM     33  CB  ALA E  13      -3.034  19.793  -2.853  1.00 56.27 LIG 0.04  C 
BRANCH 32 34
ATOM     34  C   ALA E  13      -0.965  20.959  -2.175  1.00 65.29 LIG 0.24  C 
ATOM     35  N   ALA E  14      -0.165  21.215  -1.146  1.00 85.74 LIG-0.35  N 
ATOM     36 H    ALA E  14      -0.092  20.698  -0.463  1.00 85.74 LIG 0.16  HD
ATOM     37 O    ALA E  13      -1.061  21.699  -3.157  1.00 75.52 LIG-0.27  OA
BRANCH 35 38
ATOM     38  CA  ALA E  14       0.667  22.403  -1.078  1.00 94.46 LIG 0.16  C 
ATOM     39  CB  ALA E  14      -0.149  23.583  -0.603  1.00106.12 LIG 0.04  C 
BRANCH 38 40
ATOM     40  C   ALA E  14       1.854  22.166  -0.152  1.00 99.07 LIG 0.22  C 
ATOM     41 O    ALA E  14       1.972  21.106   0.464  1.00120.33 LIG-0.29  OA
ENDBRANCH 38 40
ENDBRANCH 35 38
ENDBRANCH 32 34
ENDBRANCH 29 32
ENDBRANCH 26 28
ENDBRANCH 23 26
ENDBRANCH 1 22
TORSDOF 13
ENDMDL
MODEL 146
USER: ADFR SOLUTION from run 179
USER: SCORE 5.079407 LL:  -2.556 LR:  -3.808 RR:   0.000 FEB:   0.070
USER: RMSD 4.816476
USER: SEED 178
USER: STATUS no improvement in best in 84 clusters for 5 generations
USER: GENES 15
USER: genes 0 Translation |==|  0.63283 0.34746 0.56861
USER: genes 1 Rotation |==|  0.64330 0.53472 0.44027 0.97402
USER: genes 2 Torsion [CB]-CA--N-[C] |==|  0.14190
USER: genes 3 Torsion [N]-C--CA-[N] |==|  0.29645
USER: genes 4 Torsion [C]-CA--N-[C] |==|  0.83740
USER: genes 5 Torsion [N]-C--CA-[N] |==|  0.95668
USER: genes 6 Torsion [C]-CA--N-[C] |==|  0.81293
USER: genes 7 Torsion [N]-C--CA-[N] |==|  0.78660
USER: genes 8 Torsion [N]-CA--C-[N] |==|  0.09124
USER: genes 9 Torsion [C]-N--CA-[CB] |==|  0.50567
USER: genes 10 Torsion [N]-CA--C-[N] |==|  0.43008
USER: genes 11 Torsion [C]-N--CA-[CB] |==|  0.52446
USER: genes 12 Torsion [N]-CA--C-[N] |==|  0.41159
USER: genes 13 Torsion [C]-N--CA-[C] |==|  0.76972
USER: genes 14 Torsion [N]-CA--C-[O] |==|  0.97670
ROOT
ATOM      1  CA  ALA E  11       1.769  20.883   2.429  1.00 85.35 LIG 0.17  C 
ATOM      2  CB  ALA E  11       1.123  20.809   3.814  1.00 80.46 LIG 0.04  C 
ENDROOT
BRANCH 1 3
ATOM      3  N   ALA E  11       2.929  21.767   2.463  1.00 87.15 LIG-0.35  N 
ATOM      4  C   ALA E  10       3.876  21.603   3.389  1.00 62.15 LIG 0.24  C 
ATOM      5 O    ALA E  10       3.928  20.606   4.110  1.00 65.72 LIG-0.27  OA
ATOM      6 H    ALA E  11       2.941  22.375   1.854  1.00 87.15 LIG 0.16  HD
BRANCH 4 7
ATOM      7  CA  ALA E  10       4.920  22.706   3.532  1.00 66.45 LIG 0.17  C 
ATOM      8  CB  ALA E  10       6.326  22.109   3.535  1.00 58.63 LIG 0.04  C 
BRANCH 7 9
ATOM      9  N   ALA E  10       4.716  23.494   4.738  1.00 75.43 LIG-0.35  N 
ATOM     10  C   ALA E   9       3.589  24.156   4.991  1.00 82.21 LIG 0.24  C 
ATOM     11 O    ALA E   9       2.629  24.188   4.213  1.00 73.75 LIG-0.27  OA
ATOM     12 H    ALA E  10       5.391  23.493   5.272  1.00 75.43 LIG 0.16  HD
BRANCH 10 13
ATOM     13  CA  ALA E   9       3.542  24.919   6.308  1.00 87.65 LIG 0.17  C 
ATOM     14  CB  ALA E   9       3.650  26.424   6.073  1.00 72.21 LIG 0.04  C 
BRANCH 13 15
ATOM     15  N   ALA E   9       4.628  24.431   7.148  1.00 84.24 LIG-0.35  N 
ATOM     16 H    ALA E   9       5.248  25.009   7.293  1.00 84.24 LIG 0.16  HD
ATOM     17  C   ALA E   8       4.645  23.199   7.639  1.00 61.40 LIG 0.26  C 
ATOM     18 O    ALA E   8       3.708  22.416   7.501  1.00 66.21 LIG-0.27  OA
BRANCH 17 19
ATOM     19  CA  ALA E   8       5.891  22.802   8.425  1.00 67.03 LIG 0.40  C 
ATOM     20  N   ALA E   8       7.025  22.505   7.500  1.00 60.26 LIG 0.61  N 
ATOM     21  CB  ALA E   8       6.280  23.902   9.407  1.00 64.64 LIG 0.06  C 
ENDBRANCH 17 19
ENDBRANCH 13 15
ENDBRANCH 10 13
ENDBRANCH 7 9
ENDBRANCH 4 7
ENDBRANCH 1 3
BRANCH 1 22
ATOM     22  C   ALA E  11       0.747  21.341   1.395  1.00 81.78 LIG 0.24  C 
ATOM     23  N   ALA E  12       1.209  21.929   0.293  1.00 82.91 LIG-0.35  N 
ATOM     24 H    ALA E  12       2.040  21.970   0.071  1.00 82.91 LIG 0.16  HD
ATOM     25 O    ALA E  11      -0.463  21.178   1.591  1.00 89.30 LIG-0.27  OA
BRANCH 23 26
ATOM     26  CA  ALA E  12       0.288  22.563  -0.641  1.00 61.10 LIG 0.17  C 
ATOM     27  CB  ALA E  12       1.044  23.125  -1.854  1.00 65.27 LIG 0.04  C 
BRANCH 26 28
ATOM     28  C   ALA E  12      -0.779  21.578  -1.089  1.00 54.59 LIG 0.24  C 
ATOM     29  N   ALA E  13      -1.922  22.136  -1.489  1.00 64.78 LIG-0.35  N 
ATOM     30 H    ALA E  13      -2.041  22.985  -1.557  1.00 64.78 LIG 0.16  HD
ATOM     31 O    ALA E  12      -0.566  20.363  -1.108  1.00 69.11 LIG-0.27  OA
BRANCH 29 32
ATOM     32  CA  ALA E  13      -3.083  21.340  -1.851  1.00 54.23 LIG 0.17  C 
ATOM     33  CB  ALA E  13      -4.157  22.235  -2.471  1.00 56.27 LIG 0.04  C 
BRANCH 32 34
ATOM     34  C   ALA E  13      -2.746  20.242  -2.843  1.00 65.29 LIG 0.24  C 
ATOM     35  N   ALA E  14      -3.474  19.136  -2.734  1.00 85.74 LIG-0.35  N 
ATOM     36 H    ALA E  14      -4.072  19.020  -2.128  1.00 85.74 LIG 0.16  HD
ATOM     37 O    ALA E  13      -1.895  20.408  -3.721  1.00 75.52 LIG-0.27  OA
BRANCH 35 38
ATOM     38  CA  ALA E  14      -3.327  18.011  -3.640  1.00 94.46 LIG 0.16  C 
ATOM     39  CB  ALA E  14      -3.775  16.736  -2.962  1.00106.12 LIG 0.04  C 
BRANCH 38 40
ATOM     40  C   ALA E  14      -4.127  18.248  -4.915  1.00 99.07 LIG 0.22  C 
ATOM     41 O    ALA E  14      -4.898  19.204  -5.007  1.00120.33 LIG-0.29  OA
ENDBRANCH 38 40
ENDBRANCH 35 38
ENDBRANCH 32 34
ENDBRANCH 29 32
ENDBRANCH 26 28
ENDBRANCH 23 26
ENDBRANCH 1 22
TORSDOF 13
ENDMDL
MODEL 147
USER: ADFR SOLUTION from run 169
USER: SCORE 3.530745 LL:  -2.396 LR:  -3.814 RR:   0.000 FEB:   0.063
USER: RMSD 4.331134
USER: SEED 168
USER: STATUS no improvement in best in 106 clusters for 5 generations
USER: GENES 15
USER: genes 0 Translation |==|  0.56376 0.26265 0.59726
USER: genes 1 Rotation |==|  0.59675 0.39509 0.57893 0.97265
USER: genes 2 Torsion [CB]-CA--N-[C] |==|  0.39468
USER: genes 3 Torsion [N]-C--CA-[N] |==|  0.48141
USER: genes 4 Torsion [C]-CA--N-[C] |==|  0.65321
USER: genes 5 Torsion [N]-C--CA-[N] |==|  0.16577
USER: genes 6 Torsion [C]-CA--N-[C] |==|  0.74161
USER: genes 7 Torsion [N]-C--CA-[N] |==|  0.42770
USER: genes 8 Torsion [N]-CA--C-[N] |==|  0.45280
USER: genes 9 Torsion [C]-N--CA-[CB] |==|  0.52244
USER: genes 10 Torsion [N]-CA--C-[N] |==|  0.42543
USER: genes 11 Torsion [C]-N--CA-[CB] |==|  0.84914
USER: genes 12 Torsion [N]-CA--C-[N] |==|  0.38380
USER: genes 13 Torsion [C]-N--CA-[C] |==|  0.75882
USER: genes 14 Torsion [N]-CA--C-[O] |==|  0.04319
ROOT
ATOM      1  CA  ALA E  11       0.215  19.357   2.945  1.00 85.35 LIG 0.17  C 
ATOM      2  CB  ALA E  11      -1.121  19.106   3.648  1.00 80.46 LIG 0.04  C 
ENDROOT
BRANCH 1 3
ATOM      3  N   ALA E  11       0.766  20.642   3.359  1.00 87.15 LIG-0.35  N 
ATOM      4  C   ALA E  10       2.081  20.786   3.544  1.00 62.15 LIG 0.24  C 
ATOM      5 O    ALA E  10       2.893  19.931   3.188  1.00 65.72 LIG-0.27  OA
ATOM      6 H    ALA E  11       0.187  21.269   3.466  1.00 87.15 LIG 0.16  HD
BRANCH 4 7
ATOM      7  CA  ALA E  10       2.561  22.065   4.220  1.00 66.45 LIG 0.17  C 
ATOM      8  CB  ALA E  10       2.237  23.279   3.350  1.00 58.63 LIG 0.04  C 
BRANCH 7 9
ATOM      9  N   ALA E  10       3.988  22.028   4.503  1.00 75.43 LIG-0.35  N 
ATOM     10  C   ALA E   9       4.492  22.225   5.719  1.00 82.21 LIG 0.24  C 
ATOM     11 O    ALA E   9       3.800  22.488   6.709  1.00 73.75 LIG-0.27  OA
ATOM     12 H    ALA E  10       4.475  21.869   3.811  1.00 75.43 LIG 0.16  HD
BRANCH 10 13
ATOM     13  CA  ALA E   9       6.008  22.138   5.838  1.00 87.65 LIG 0.17  C 
ATOM     14  CB  ALA E   9       6.456  22.329   7.285  1.00 72.21 LIG 0.04  C 
BRANCH 13 15
ATOM     15  N   ALA E   9       6.584  23.150   4.963  1.00 84.24 LIG-0.35  N 
ATOM     16 H    ALA E   9       6.669  23.924   5.329  1.00 84.24 LIG 0.16  HD
ATOM     17  C   ALA E   8       6.943  22.886   3.714  1.00 61.40 LIG 0.26  C 
ATOM     18 O    ALA E   8       6.902  21.754   3.237  1.00 66.21 LIG-0.27  OA
BRANCH 17 19
ATOM     19  CA  ALA E   8       7.446  24.068   2.891  1.00 67.03 LIG 0.40  C 
ATOM     20  N   ALA E   8       8.366  23.603   1.810  1.00 60.26 LIG 0.61  N 
ATOM     21  CB  ALA E   8       6.278  24.846   2.296  1.00 64.64 LIG 0.06  C 
ENDBRANCH 17 19
ENDBRANCH 13 15
ENDBRANCH 10 13
ENDBRANCH 7 9
ENDBRANCH 4 7
ENDBRANCH 1 3
BRANCH 1 22
ATOM     22  C   ALA E  11       0.036  19.286   1.433  1.00 81.78 LIG 0.24  C 
ATOM     23  N   ALA E  12      -0.123  18.081   0.888  1.00 82.91 LIG-0.35  N 
ATOM     24 H    ALA E  12      -0.243  17.355   1.333  1.00 82.91 LIG 0.16  HD
ATOM     25 O    ALA E  11       0.054  20.316   0.748  1.00 89.30 LIG-0.27  OA
BRANCH 23 26
ATOM     26  CA  ALA E  12      -0.102  17.923  -0.560  1.00 61.10 LIG 0.17  C 
ATOM     27  CB  ALA E  12      -0.503  16.494  -0.957  1.00 65.27 LIG 0.04  C 
BRANCH 26 28
ATOM     28  C   ALA E  12      -1.024  18.936  -1.220  1.00 54.59 LIG 0.24  C 
ATOM     29  N   ALA E  13      -0.687  19.268  -2.466  1.00 64.78 LIG-0.35  N 
ATOM     30 H    ALA E  13      -0.042  18.901  -2.901  1.00 64.78 LIG 0.16  HD
ATOM     31 O    ALA E  12      -2.022  19.372  -0.640  1.00 69.11 LIG-0.27  OA
BRANCH 29 32
ATOM     32  CA  ALA E  13      -1.396  20.299  -3.208  1.00 54.23 LIG 0.17  C 
ATOM     33  CB  ALA E  13      -2.893  19.989  -3.231  1.00 56.27 LIG 0.04  C 
BRANCH 32 34
ATOM     34  C   ALA E  13      -1.203  21.680  -2.608  1.00 65.29 LIG 0.24  C 
ATOM     35  N   ALA E  14      -1.005  22.657  -3.486  1.00 85.74 LIG-0.35  N 
ATOM     36 H    ALA E  14      -0.949  22.528  -4.334  1.00 85.74 LIG 0.16  HD
ATOM     37 O    ALA E  13      -1.291  21.870  -1.393  1.00 75.52 LIG-0.27  OA
BRANCH 35 38
ATOM     38  CA  ALA E  14      -0.863  24.046  -3.091  1.00 94.46 LIG 0.16  C 
ATOM     39  CB  ALA E  14       0.013  24.782  -4.080  1.00106.12 LIG 0.04  C 
BRANCH 38 40
ATOM     40  C   ALA E  14      -2.231  24.711  -2.990  1.00 99.07 LIG 0.22  C 
ATOM     41 O    ALA E  14      -3.259  24.035  -2.947  1.00120.33 LIG-0.29  OA
ENDBRANCH 38 40
ENDBRANCH 35 38
ENDBRANCH 32 34
ENDBRANCH 29 32
ENDBRANCH 26 28
ENDBRANCH 23 26
ENDBRANCH 1 22
TORSDOF 13
ENDMDL
MODEL 148
USER: ADFR SOLUTION from run 166
USER: SCORE 4.122925 LL:  -2.454 LR:  -3.805 RR:   0.000 FEB:   0.073
USER: RMSD 4.500496
USER: SEED 165
USER: STATUS no improvement in best in 98 clusters for 5 generations
USER: GENES 15
USER: genes 0 Translation |==|  0.56762 0.25815 0.56944
USER: genes 1 Rotation |==|  0.71270 0.55428 0.58855 0.94042
USER: genes 2 Torsion [CB]-CA--N-[C] |==|  0.26186
USER: genes 3 Torsion [N]-C--CA-[N] |==|  0.48089
USER: genes 4 Torsion [C]-CA--N-[C] |==|  0.60156
USER: genes 5 Torsion [N]-C--CA-[N] |==|  0.19061
USER: genes 6 Torsion [C]-CA--N-[C] |==|  0.79201
USER: genes 7 Torsion [N]-C--CA-[N] |==|  0.47992
USER: genes 8 Torsion [N]-CA--C-[N] |==|  0.46104
USER: genes 9 Torsion [C]-N--CA-[CB] |==|  0.83709
USER: genes 10 Torsion [N]-CA--C-[N] |==|  0.44746
USER: genes 11 Torsion [C]-N--CA-[CB] |==|  0.18245
USER: genes 12 Torsion [N]-CA--C-[N] |==|  0.10064
USER: genes 13 Torsion [C]-N--CA-[C] |==|  0.76262
USER: genes 14 Torsion [N]-CA--C-[O] |==|  0.99265
ROOT
ATOM      1  CA  ALA E  11       0.302  19.276   2.444  1.00 85.35 LIG 0.17  C 
ATOM      2  CB  ALA E  11      -0.224  18.391   3.576  1.00 80.46 LIG 0.04  C 
ENDROOT
BRANCH 1 3
ATOM      3  N   ALA E  11       0.801  20.536   2.983  1.00 87.15 LIG-0.35  N 
ATOM      4  C   ALA E  10       2.096  20.680   3.274  1.00 62.15 LIG 0.24  C 
ATOM      5 O    ALA E  10       2.946  19.861   2.922  1.00 65.72 LIG-0.27  OA
ATOM      6 H    ALA E  11       0.206  21.148   3.089  1.00 87.15 LIG 0.16  HD
BRANCH 4 7
ATOM      7  CA  ALA E  10       2.506  21.916   4.068  1.00 66.45 LIG 0.17  C 
ATOM      8  CB  ALA E  10       2.232  23.182   3.259  1.00 58.63 LIG 0.04  C 
BRANCH 7 9
ATOM      9  N   ALA E  10       3.908  21.873   4.456  1.00 75.43 LIG-0.35  N 
ATOM     10  C   ALA E   9       4.353  22.337   5.621  1.00 82.21 LIG 0.24  C 
ATOM     11 O    ALA E   9       3.625  22.875   6.463  1.00 73.75 LIG-0.27  OA
ATOM     12 H    ALA E  10       4.422  21.521   3.862  1.00 75.43 LIG 0.16  HD
BRANCH 10 13
ATOM     13  CA  ALA E   9       5.849  22.200   5.869  1.00 87.65 LIG 0.17  C 
ATOM     14  CB  ALA E   9       6.194  22.511   7.324  1.00 72.21 LIG 0.04  C 
BRANCH 13 15
ATOM     15  N   ALA E   9       6.539  23.100   4.954  1.00 84.24 LIG-0.35  N 
ATOM     16 H    ALA E   9       6.851  23.810   5.327  1.00 84.24 LIG 0.16  HD
ATOM     17  C   ALA E   8       6.668  22.834   3.661  1.00 61.40 LIG 0.26  C 
ATOM     18 O    ALA E   8       6.300  21.773   3.162  1.00 66.21 LIG-0.27  OA
BRANCH 17 19
ATOM     19  CA  ALA E   8       7.334  23.912   2.812  1.00 67.03 LIG 0.40  C 
ATOM     20  N   ALA E   8       7.572  23.417   1.423  1.00 60.26 LIG 0.61  N 
ATOM     21  CB  ALA E   8       6.485  25.178   2.786  1.00 64.64 LIG 0.06  C 
ENDBRANCH 17 19
ENDBRANCH 13 15
ENDBRANCH 10 13
ENDBRANCH 7 9
ENDBRANCH 4 7
ENDBRANCH 1 3
BRANCH 1 22
ATOM     22  C   ALA E  11      -0.789  19.506   1.405  1.00 81.78 LIG 0.24  C 
ATOM     23  N   ALA E  12      -1.129  18.476   0.632  1.00 82.91 LIG-0.35  N 
ATOM     24 H    ALA E  12      -0.860  17.666   0.748  1.00 82.91 LIG 0.16  HD
ATOM     25 O    ALA E  11      -1.321  20.616   1.285  1.00 89.30 LIG-0.27  OA
BRANCH 23 26
ATOM     26  CA  ALA E  12      -2.017  18.674  -0.505  1.00 61.10 LIG 0.17  C 
ATOM     27  CB  ALA E  12      -3.364  19.257  -0.049  1.00 65.27 LIG 0.04  C 
BRANCH 26 28
ATOM     28  C   ALA E  12      -1.368  19.581  -1.537  1.00 54.59 LIG 0.24  C 
ATOM     29  N   ALA E  13      -1.901  19.512  -2.757  1.00 64.78 LIG-0.35  N 
ATOM     30 H    ALA E  13      -2.599  19.046  -2.947  1.00 64.78 LIG 0.16  HD
ATOM     31 O    ALA E  12      -0.444  20.342  -1.235  1.00 69.11 LIG-0.27  OA
BRANCH 29 32
ATOM     32  CA  ALA E  13      -1.338  20.232  -3.888  1.00 54.23 LIG 0.17  C 
ATOM     33  CB  ALA E  13       0.050  19.682  -4.218  1.00 56.27 LIG 0.04  C 
BRANCH 32 34
ATOM     34  C   ALA E  13      -2.203  20.125  -5.131  1.00 65.29 LIG 0.24  C 
ATOM     35  N   ALA E  14      -3.513  20.122  -4.912  1.00 85.74 LIG-0.35  N 
ATOM     36 H    ALA E  14      -3.862  20.140  -4.127  1.00 85.74 LIG 0.16  HD
ATOM     37 O    ALA E  13      -1.705  20.107  -6.259  1.00 75.52 LIG-0.27  OA
BRANCH 35 38
ATOM     38  CA  ALA E  14      -4.486  20.087  -5.989  1.00 94.46 LIG 0.16  C 
ATOM     39  CB  ALA E  14      -5.762  19.429  -5.516  1.00106.12 LIG 0.04  C 
BRANCH 38 40
ATOM     40  C   ALA E  14      -4.767  21.497  -6.496  1.00 99.07 LIG 0.22  C 
ATOM     41 O    ALA E  14      -4.236  22.474  -5.967  1.00120.33 LIG-0.29  OA
ENDBRANCH 38 40
ENDBRANCH 35 38
ENDBRANCH 32 34
ENDBRANCH 29 32
ENDBRANCH 26 28
ENDBRANCH 23 26
ENDBRANCH 1 22
TORSDOF 13
ENDMDL
MODEL 149
USER: ADFR SOLUTION from run 162
USER: SCORE 4.867920 LL:  -3.161 LR:  -3.796 RR:   0.000 FEB:   0.082
USER: RMSD 4.860312
USER: SEED 161
USER: STATUS no improvement in best in 72 clusters for 5 generations
USER: GENES 15
USER: genes 0 Translation |==|  0.57589 0.24029 0.58143
USER: genes 1 Rotation |==|  0.54611 0.48898 0.55065 0.99516
USER: genes 2 Torsion [CB]-CA--N-[C] |==|  0.24267
USER: genes 3 Torsion [N]-C--CA-[N] |==|  0.53772
USER: genes 4 Torsion [C]-CA--N-[C] |==|  0.73908
USER: genes 5 Torsion [N]-C--CA-[N] |==|  0.17803
USER: genes 6 Torsion [C]-CA--N-[C] |==|  0.78087
USER: genes 7 Torsion [N]-C--CA-[N] |==|  0.54421
USER: genes 8 Torsion [N]-CA--C-[N] |==|  0.07187
USER: genes 9 Torsion [C]-N--CA-[CB] |==|  0.86943
USER: genes 10 Torsion [N]-CA--C-[N] |==|  0.88343
USER: genes 11 Torsion [C]-N--CA-[CB] |==|  0.21236
USER: genes 12 Torsion [N]-CA--C-[N] |==|  0.06713
USER: genes 13 Torsion [C]-N--CA-[C] |==|  0.59072
USER: genes 14 Torsion [N]-CA--C-[O] |==|  0.97726
ROOT
ATOM      1  CA  ALA E  11       0.488  18.954   2.660  1.00 85.35 LIG 0.17  C 
ATOM      2  CB  ALA E  11      -0.508  19.046   3.818  1.00 80.46 LIG 0.04  C 
ENDROOT
BRANCH 1 3
ATOM      3  N   ALA E  11       1.208  20.215   2.517  1.00 87.15 LIG-0.35  N 
ATOM      4  C   ALA E  10       2.324  20.438   3.217  1.00 62.15 LIG 0.24  C 
ATOM      5 O    ALA E  10       2.900  19.546   3.841  1.00 65.72 LIG-0.27  OA
ATOM      6 H    ALA E  11       0.860  20.773   1.963  1.00 87.15 LIG 0.16  HD
BRANCH 4 7
ATOM      7  CA  ALA E  10       2.880  21.858   3.220  1.00 66.45 LIG 0.17  C 
ATOM      8  CB  ALA E  10       2.843  22.446   1.810  1.00 58.63 LIG 0.04  C 
BRANCH 7 9
ATOM      9  N   ALA E  10       4.239  21.908   3.739  1.00 75.43 LIG-0.35  N 
ATOM     10  C   ALA E   9       4.519  22.163   5.015  1.00 82.21 LIG 0.24  C 
ATOM     11 O    ALA E   9       3.656  22.412   5.865  1.00 73.75 LIG-0.27  OA
ATOM     12 H    ALA E  10       4.843  21.759   3.145  1.00 75.43 LIG 0.16  HD
BRANCH 10 13
ATOM     13  CA  ALA E   9       5.995  22.164   5.389  1.00 87.65 LIG 0.17  C 
ATOM     14  CB  ALA E   9       6.178  22.308   6.899  1.00 72.21 LIG 0.04  C 
BRANCH 13 15
ATOM     15  N   ALA E   9       6.639  23.254   4.668  1.00 84.24 LIG-0.35  N 
ATOM     16 H    ALA E   9       6.778  23.957   5.144  1.00 84.24 LIG 0.16  HD
ATOM     17  C   ALA E   8       6.976  23.156   3.389  1.00 61.40 LIG 0.26  C 
ATOM     18 O    ALA E   8       6.856  22.114   2.749  1.00 66.21 LIG-0.27  OA
BRANCH 17 19
ATOM     19  CA  ALA E   8       7.559  24.410   2.746  1.00 67.03 LIG 0.40  C 
ATOM     20  N   ALA E   8       7.535  24.298   1.256  1.00 60.26 LIG 0.61  N 
ATOM     21  CB  ALA E   8       6.796  25.651   3.197  1.00 64.64 LIG 0.06  C 
ENDBRANCH 17 19
ENDBRANCH 13 15
ENDBRANCH 10 13
ENDBRANCH 7 9
ENDBRANCH 4 7
ENDBRANCH 1 3
BRANCH 1 22
ATOM     22  C   ALA E  11      -0.234  18.575   1.373  1.00 81.78 LIG 0.24  C 
ATOM     23  N   ALA E  12       0.259  19.047   0.229  1.00 82.91 LIG-0.35  N 
ATOM     24 H    ALA E  12       1.012  19.456   0.152  1.00 82.91 LIG 0.16  HD
ATOM     25 O    ALA E  11      -1.246  17.864   1.404  1.00 89.30 LIG-0.27  OA
BRANCH 23 26
ATOM     26  CA  ALA E  12      -0.487  18.888  -1.012  1.00 61.10 LIG 0.17  C 
ATOM     27  CB  ALA E  12      -0.996  17.446  -1.161  1.00 65.27 LIG 0.04  C 
BRANCH 26 28
ATOM     28  C   ALA E  12      -1.647  19.869  -1.067  1.00 54.59 LIG 0.24  C 
ATOM     29  N   ALA E  13      -2.317  20.006   0.078  1.00 64.78 LIG-0.35  N 
ATOM     30 H    ALA E  13      -2.086  19.628   0.815  1.00 64.78 LIG 0.16  HD
ATOM     31 O    ALA E  12      -1.903  20.506  -2.092  1.00 69.11 LIG-0.27  OA
BRANCH 29 32
ATOM     32  CA  ALA E  13      -3.516  20.823   0.177  1.00 54.23 LIG 0.17  C 
ATOM     33  CB  ALA E  13      -4.704  20.083  -0.440  1.00 56.27 LIG 0.04  C 
BRANCH 32 34
ATOM     34  C   ALA E  13      -3.863  21.170   1.613  1.00 65.29 LIG 0.24  C 
ATOM     35  N   ALA E  14      -2.844  21.145   2.465  1.00 85.74 LIG-0.35  N 
ATOM     36 H    ALA E  14      -2.047  20.913   2.243  1.00 85.74 LIG 0.16  HD
ATOM     37 O    ALA E  13      -5.005  21.510   1.933  1.00 75.52 LIG-0.27  OA
BRANCH 35 38
ATOM     38  CA  ALA E  14      -2.985  21.508   3.863  1.00 94.46 LIG 0.16  C 
ATOM     39  CB  ALA E  14      -3.329  20.288   4.686  1.00106.12 LIG 0.04  C 
BRANCH 38 40
ATOM     40  C   ALA E  14      -1.702  22.154   4.375  1.00 99.07 LIG 0.22  C 
ATOM     41 O    ALA E  14      -0.685  22.171   3.681  1.00120.33 LIG-0.29  OA
ENDBRANCH 38 40
ENDBRANCH 35 38
ENDBRANCH 32 34
ENDBRANCH 29 32
ENDBRANCH 26 28
ENDBRANCH 23 26
ENDBRANCH 1 22
TORSDOF 13
ENDMDL
MODEL 150
USER: ADFR SOLUTION from run 81
USER: SCORE 3.375663 LL:  -2.408 LR:  -3.799 RR:   0.000 FEB:   0.079
USER: RMSD 3.906895
USER: SEED 80
USER: STATUS no improvement in best in 76 clusters for 5 generations
USER: GENES 15
USER: genes 0 Translation |==|  0.51790 0.46337 0.77746
USER: genes 1 Rotation |==|  0.41246 0.45840 0.50881 0.99044
USER: genes 2 Torsion [CB]-CA--N-[C] |==|  0.50463
USER: genes 3 Torsion [N]-C--CA-[N] |==|  0.41491
USER: genes 4 Torsion [C]-CA--N-[C] |==|  0.83293
USER: genes 5 Torsion [N]-C--CA-[N] |==|  0.08647
USER: genes 6 Torsion [C]-CA--N-[C] |==|  0.72470
USER: genes 7 Torsion [N]-C--CA-[N] |==|  0.81223
USER: genes 8 Torsion [N]-CA--C-[N] |==|  0.87051
USER: genes 9 Torsion [C]-N--CA-[CB] |==|  0.15424
USER: genes 10 Torsion [N]-CA--C-[N] |==|  0.59051
USER: genes 11 Torsion [C]-N--CA-[CB] |==|  0.83769
USER: genes 12 Torsion [N]-CA--C-[N] |==|  0.40612
USER: genes 13 Torsion [C]-N--CA-[C] |==|  0.73209
USER: genes 14 Torsion [N]-CA--C-[O] |==|  0.00756
ROOT
ATOM      1  CA  ALA E  11      -0.817  22.970   6.188  1.00 85.35 LIG 0.17  C 
ATOM      2  CB  ALA E  11      -1.885  23.770   6.936  1.00 80.46 LIG 0.04  C 
ENDROOT
BRANCH 1 3
ATOM      3  N   ALA E  11       0.174  23.871   5.612  1.00 87.15 LIG-0.35  N 
ATOM      4  C   ALA E  10       1.185  23.388   4.884  1.00 62.15 LIG 0.24  C 
ATOM      5 O    ALA E  10       1.219  22.219   4.498  1.00 65.72 LIG-0.27  OA
ATOM      6 H    ALA E  11       0.049  24.706   5.780  1.00 87.15 LIG 0.16  HD
BRANCH 4 7
ATOM      7  CA  ALA E  10       2.319  24.344   4.532  1.00 66.45 LIG 0.17  C 
ATOM      8  CB  ALA E  10       2.005  25.085   3.233  1.00 58.63 LIG 0.04  C 
BRANCH 7 9
ATOM      9  N   ALA E  10       3.594  23.654   4.409  1.00 75.43 LIG-0.35  N 
ATOM     10  C   ALA E   9       4.150  22.974   5.409  1.00 82.21 LIG 0.24  C 
ATOM     11 O    ALA E   9       3.653  22.894   6.538  1.00 73.75 LIG-0.27  OA
ATOM     12 H    ALA E  10       3.954  23.727   3.631  1.00 75.43 LIG 0.16  HD
BRANCH 10 13
ATOM     13  CA  ALA E   9       5.481  22.301   5.102  1.00 87.65 LIG 0.17  C 
ATOM     14  CB  ALA E   9       6.315  22.132   6.370  1.00 72.21 LIG 0.04  C 
BRANCH 13 15
ATOM     15  N   ALA E   9       6.176  23.113   4.111  1.00 84.24 LIG-0.35  N 
ATOM     16 H    ALA E   9       6.584  23.795   4.440  1.00 84.24 LIG 0.16  HD
ATOM     17  C   ALA E   8       6.169  22.814   2.820  1.00 61.40 LIG 0.26  C 
ATOM     18 O    ALA E   8       5.660  21.785   2.379  1.00 66.21 LIG-0.27  OA
BRANCH 17 19
ATOM     19  CA  ALA E   8       6.863  23.806   1.892  1.00 67.03 LIG 0.40  C 
ATOM     20  N   ALA E   8       6.114  25.098   1.847  1.00 60.26 LIG 0.61  N 
ATOM     21  CB  ALA E   8       8.302  24.042   2.337  1.00 64.64 LIG 0.06  C 
ENDBRANCH 17 19
ENDBRANCH 13 15
ENDBRANCH 10 13
ENDBRANCH 7 9
ENDBRANCH 4 7
ENDBRANCH 1 3
BRANCH 1 22
ATOM     22  C   ALA E  11      -1.464  22.095   5.121  1.00 81.78 LIG 0.24  C 
ATOM     23  N   ALA E  12      -1.877  22.692   4.004  1.00 82.91 LIG-0.35  N 
ATOM     24 H    ALA E  12      -1.707  23.509   3.794  1.00 82.91 LIG 0.16  HD
ATOM     25 O    ALA E  11      -1.606  20.880   5.304  1.00 89.30 LIG-0.27  OA
BRANCH 23 26
ATOM     26  CA  ALA E  12      -2.675  21.958   3.032  1.00 61.10 LIG 0.17  C 
ATOM     27  CB  ALA E  12      -3.931  21.368   3.692  1.00 65.27 LIG 0.04  C 
BRANCH 26 28
ATOM     28  C   ALA E  12      -3.059  22.857   1.869  1.00 54.59 LIG 0.24  C 
ATOM     29  N   ALA E  13      -4.244  22.587   1.321  1.00 64.78 LIG-0.35  N 
ATOM     30 H    ALA E  13      -4.789  21.998   1.629  1.00 64.78 LIG 0.16  HD
ATOM     31 O    ALA E  12      -2.330  23.784   1.504  1.00 69.11 LIG-0.27  OA
BRANCH 29 32
ATOM     32  CA  ALA E  13      -4.721  23.280   0.135  1.00 54.23 LIG 0.17  C 
ATOM     33  CB  ALA E  13      -4.780  24.785   0.397  1.00 56.27 LIG 0.04  C 
BRANCH 32 34
ATOM     34  C   ALA E  13      -3.833  23.040  -1.073  1.00 65.29 LIG 0.24  C 
ATOM     35  N   ALA E  14      -4.464  22.996  -2.241  1.00 85.74 LIG-0.35  N 
ATOM     36 H    ALA E  14      -5.317  23.059  -2.321  1.00 85.74 LIG 0.16  HD
ATOM     37 O    ALA E  13      -2.607  22.957  -0.962  1.00 75.52 LIG-0.27  OA
BRANCH 35 38
ATOM     38  CA  ALA E  14      -3.763  22.835  -3.502  1.00 94.46 LIG 0.16  C 
ATOM     39  CB  ALA E  14      -4.549  21.930  -4.423  1.00106.12 LIG 0.04  C 
BRANCH 38 40
ATOM     40  C   ALA E  14      -3.531  24.192  -4.156  1.00 99.07 LIG 0.22  C 
ATOM     41 O    ALA E  14      -3.876  25.231  -3.592  1.00120.33 LIG-0.29  OA
ENDBRANCH 38 40
ENDBRANCH 35 38
ENDBRANCH 32 34
ENDBRANCH 29 32
ENDBRANCH 26 28
ENDBRANCH 23 26
ENDBRANCH 1 22
TORSDOF 13
ENDMDL
MODEL 151
USER: ADFR SOLUTION from run 179
USER: SCORE 5.687113 LL:  -2.724 LR:  -3.792 RR:   0.000 FEB:   0.086
USER: RMSD 4.692677
USER: SEED 178
USER: STATUS no improvement in best in 84 clusters for 5 generations
USER: GENES 15
USER: genes 0 Translation |==|  0.66331 0.32818 0.57892
USER: genes 1 Rotation |==|  0.73448 0.67070 0.56388 0.90224
USER: genes 2 Torsion [CB]-CA--N-[C] |==|  0.14469
USER: genes 3 Torsion [N]-C--CA-[N] |==|  0.08385
USER: genes 4 Torsion [C]-CA--N-[C] |==|  0.21098
USER: genes 5 Torsion [N]-C--CA-[N] |==|  0.90577
USER: genes 6 Torsion [C]-CA--N-[C] |==|  0.83969
USER: genes 7 Torsion [N]-C--CA-[N] |==|  0.26655
USER: genes 8 Torsion [N]-CA--C-[N] |==|  0.13735
USER: genes 9 Torsion [C]-N--CA-[CB] |==|  0.84999
USER: genes 10 Torsion [N]-CA--C-[N] |==|  0.43044
USER: genes 11 Torsion [C]-N--CA-[CB] |==|  0.84314
USER: genes 12 Torsion [N]-CA--C-[N] |==|  0.40226
USER: genes 13 Torsion [C]-N--CA-[C] |==|  0.53292
USER: genes 14 Torsion [N]-CA--C-[O] |==|  0.98102
ROOT
ATOM      1  CA  ALA E  11       2.454  20.536   2.615  1.00 85.35 LIG 0.17  C 
ATOM      2  CB  ALA E  11       2.629  19.570   3.788  1.00 80.46 LIG 0.04  C 
ENDROOT
BRANCH 1 3
ATOM      3  N   ALA E  11       3.003  21.844   2.956  1.00 87.15 LIG-0.35  N 
ATOM      4  C   ALA E  10       4.249  21.953   3.424  1.00 62.15 LIG 0.24  C 
ATOM      5 O    ALA E  10       5.047  21.015   3.398  1.00 65.72 LIG-0.27  OA
ATOM      6 H    ALA E  11       2.469  22.507   2.831  1.00 87.15 LIG 0.16  HD
BRANCH 4 7
ATOM      7  CA  ALA E  10       4.670  23.300   4.001  1.00 66.45 LIG 0.17  C 
ATOM      8  CB  ALA E  10       5.767  23.110   5.047  1.00 58.63 LIG 0.04  C 
BRANCH 7 9
ATOM      9  N   ALA E  10       3.547  24.014   4.589  1.00 75.43 LIG-0.35  N 
ATOM     10  C   ALA E   9       3.022  23.695   5.770  1.00 82.21 LIG 0.24  C 
ATOM     11 O    ALA E   9       3.417  22.746   6.457  1.00 73.75 LIG-0.27  OA
ATOM     12 H    ALA E  10       3.254  24.661   4.103  1.00 75.43 LIG 0.16  HD
BRANCH 10 13
ATOM     13  CA  ALA E   9       1.859  24.557   6.242  1.00 87.65 LIG 0.17  C 
ATOM     14  CB  ALA E   9       0.528  24.006   5.735  1.00 72.21 LIG 0.04  C 
BRANCH 13 15
ATOM     15  N   ALA E   9       2.088  25.916   5.768  1.00 84.24 LIG-0.35  N 
ATOM     16 H    ALA E   9       1.456  26.228   5.275  1.00 84.24 LIG 0.16  HD
ATOM     17  C   ALA E   8       3.181  26.600   6.078  1.00 61.40 LIG 0.26  C 
ATOM     18 O    ALA E   8       4.030  26.176   6.859  1.00 66.21 LIG-0.27  OA
BRANCH 17 19
ATOM     19  CA  ALA E   8       3.323  27.975   5.435  1.00 67.03 LIG 0.40  C 
ATOM     20  N   ALA E   8       2.835  29.042   6.359  1.00 60.26 LIG 0.61  N 
ATOM     21  CB  ALA E   8       4.772  28.237   5.040  1.00 64.64 LIG 0.06  C 
ENDBRANCH 17 19
ENDBRANCH 13 15
ENDBRANCH 10 13
ENDBRANCH 7 9
ENDBRANCH 4 7
ENDBRANCH 1 3
BRANCH 1 22
ATOM     22  C   ALA E  11       0.985  20.632   2.224  1.00 81.78 LIG 0.24  C 
ATOM     23  N   ALA E  12       0.646  21.554   1.325  1.00 82.91 LIG-0.35  N 
ATOM     24 H    ALA E  12       1.206  22.022   0.869  1.00 82.91 LIG 0.16  HD
ATOM     25 O    ALA E  11       0.146  19.883   2.740  1.00 89.30 LIG-0.27  OA
BRANCH 23 26
ATOM     26  CA  ALA E  12      -0.757  21.832   1.052  1.00 61.10 LIG 0.17  C 
ATOM     27  CB  ALA E  12      -1.506  20.542   0.684  1.00 65.27 LIG 0.04  C 
BRANCH 26 28
ATOM     28  C   ALA E  12      -1.411  22.503   2.249  1.00 54.59 LIG 0.24  C 
ATOM     29  N   ALA E  13      -2.475  23.251   1.958  1.00 64.78 LIG-0.35  N 
ATOM     30 H    ALA E  13      -2.818  23.308   1.171  1.00 64.78 LIG 0.16  HD
ATOM     31 O    ALA E  12      -0.992  22.323   3.395  1.00 69.11 LIG-0.27  OA
BRANCH 29 32
ATOM     32  CA  ALA E  13      -3.158  24.046   2.965  1.00 54.23 LIG 0.17  C 
ATOM     33  CB  ALA E  13      -3.607  23.152   4.121  1.00 56.27 LIG 0.04  C 
BRANCH 32 34
ATOM     34  C   ALA E  13      -2.278  25.148   3.528  1.00 65.29 LIG 0.24  C 
ATOM     35  N   ALA E  14      -2.907  26.277   3.831  1.00 85.74 LIG-0.35  N 
ATOM     36 H    ALA E  14      -3.745  26.406   3.690  1.00 85.74 LIG 0.16  HD
ATOM     37 O    ALA E  13      -1.076  24.964   3.739  1.00 75.52 LIG-0.27  OA
BRANCH 35 38
ATOM     38  CA  ALA E  14      -2.230  27.411   4.435  1.00 94.46 LIG 0.16  C 
ATOM     39  CB  ALA E  14      -1.285  28.043   3.439  1.00106.12 LIG 0.04  C 
BRANCH 38 40
ATOM     40  C   ALA E  14      -3.248  28.433   4.929  1.00 99.07 LIG 0.22  C 
ATOM     41 O    ALA E  14      -4.446  28.300   4.683  1.00120.33 LIG-0.29  OA
ENDBRANCH 38 40
ENDBRANCH 35 38
ENDBRANCH 32 34
ENDBRANCH 29 32
ENDBRANCH 26 28
ENDBRANCH 23 26
ENDBRANCH 1 22
TORSDOF 13
ENDMDL
MODEL 152
USER: ADFR SOLUTION from run 106
USER: SCORE 5.327876 LL:  -2.215 LR:  -3.792 RR:   0.000 FEB:   0.085
USER: RMSD 6.088085
USER: SEED 105
USER: STATUS no improvement in best in 94 clusters for 5 generations
USER: GENES 15
USER: genes 0 Translation |==|  0.57411 0.39912 0.59783
USER: genes 1 Rotation |==|  0.80703 0.57071 0.48593 0.88798
USER: genes 2 Torsion [CB]-CA--N-[C] |==|  0.82414
USER: genes 3 Torsion [N]-C--CA-[N] |==|  0.88896
USER: genes 4 Torsion [C]-CA--N-[C] |==|  0.75888
USER: genes 5 Torsion [N]-C--CA-[N] |==|  0.05918
USER: genes 6 Torsion [C]-CA--N-[C] |==|  0.71747
USER: genes 7 Torsion [N]-C--CA-[N] |==|  0.96188
USER: genes 8 Torsion [N]-CA--C-[N] |==|  0.93642
USER: genes 9 Torsion [C]-N--CA-[CB] |==|  0.83920
USER: genes 10 Torsion [N]-CA--C-[N] |==|  0.41059
USER: genes 11 Torsion [C]-N--CA-[CB] |==|  0.83117
USER: genes 12 Torsion [N]-CA--C-[N] |==|  0.98877
USER: genes 13 Torsion [C]-N--CA-[C] |==|  0.71819
USER: genes 14 Torsion [N]-CA--C-[O] |==|  0.95243
ROOT
ATOM      1  CA  ALA E  11       0.448  21.813   2.955  1.00 85.35 LIG 0.17  C 
ATOM      2  CB  ALA E  11      -0.080  20.720   3.886  1.00 80.46 LIG 0.04  C 
ENDROOT
BRANCH 1 3
ATOM      3  N   ALA E  11       1.505  22.569   3.617  1.00 87.15 LIG-0.35  N 
ATOM      4  C   ALA E  10       1.242  23.278   4.717  1.00 62.15 LIG 0.24  C 
ATOM      5 O    ALA E  10       0.180  23.171   5.332  1.00 65.72 LIG-0.27  OA
ATOM      6 H    ALA E  11       2.279  22.514   3.245  1.00 87.15 LIG 0.16  HD
BRANCH 4 7
ATOM      7  CA  ALA E  10       2.316  24.242   5.207  1.00 66.45 LIG 0.17  C 
ATOM      8  CB  ALA E  10       2.237  25.560   4.438  1.00 58.63 LIG 0.04  C 
BRANCH 7 9
ATOM      9  N   ALA E  10       3.652  23.679   5.082  1.00 75.43 LIG-0.35  N 
ATOM     10  C   ALA E   9       4.209  22.918   6.022  1.00 82.21 LIG 0.24  C 
ATOM     11 O    ALA E   9       3.660  22.650   7.096  1.00 73.75 LIG-0.27  OA
ATOM     12 H    ALA E  10       4.047  23.883   4.346  1.00 75.43 LIG 0.16  HD
BRANCH 10 13
ATOM     13  CA  ALA E   9       5.609  22.400   5.721  1.00 87.65 LIG 0.17  C 
ATOM     14  CB  ALA E   9       6.463  22.361   6.986  1.00 72.21 LIG 0.04  C 
BRANCH 13 15
ATOM     15  N   ALA E   9       6.198  23.265   4.706  1.00 84.24 LIG-0.35  N 
ATOM     16 H    ALA E   9       6.493  24.013   5.011  1.00 84.24 LIG 0.16  HD
ATOM     17  C   ALA E   8       6.266  22.915   3.429  1.00 61.40 LIG 0.26  C 
ATOM     18 O    ALA E   8       5.926  21.804   3.026  1.00 66.21 LIG-0.27  OA
BRANCH 17 19
ATOM     19  CA  ALA E   8       6.826  23.960   2.470  1.00 67.03 LIG 0.40  C 
ATOM     20  N   ALA E   8       6.883  25.301   3.127  1.00 60.26 LIG 0.61  N 
ATOM     21  CB  ALA E   8       8.210  23.551   1.977  1.00 64.64 LIG 0.06  C 
ENDBRANCH 17 19
ENDBRANCH 13 15
ENDBRANCH 10 13
ENDBRANCH 7 9
ENDBRANCH 4 7
ENDBRANCH 1 3
BRANCH 1 22
ATOM     22  C   ALA E  11      -0.692  22.721   2.509  1.00 81.78 LIG 0.24  C 
ATOM     23  N   ALA E  12      -0.833  23.886   3.140  1.00 82.91 LIG-0.35  N 
ATOM     24 H    ALA E  12      -0.266  24.211   3.700  1.00 82.91 LIG 0.16  HD
ATOM     25 O    ALA E  11      -1.458  22.372   1.603  1.00 89.30 LIG-0.27  OA
BRANCH 23 26
ATOM     26  CA  ALA E  12      -2.009  24.711   2.902  1.00 61.10 LIG 0.17  C 
ATOM     27  CB  ALA E  12      -2.136  25.061   1.411  1.00 65.27 LIG 0.04  C 
BRANCH 26 28
ATOM     28  C   ALA E  12      -3.263  24.005   3.391  1.00 54.59 LIG 0.24  C 
ATOM     29  N   ALA E  13      -4.218  24.815   3.848  1.00 64.78 LIG-0.35  N 
ATOM     30 H    ALA E  13      -4.172  25.673   3.817  1.00 64.78 LIG 0.16  HD
ATOM     31 O    ALA E  12      -3.379  22.778   3.322  1.00 69.11 LIG-0.27  OA
BRANCH 29 32
ATOM     32  CA  ALA E  13      -5.440  24.305   4.450  1.00 54.23 LIG 0.17  C 
ATOM     33  CB  ALA E  13      -6.205  23.453   3.436  1.00 56.27 LIG 0.04  C 
BRANCH 32 34
ATOM     34  C   ALA E  13      -5.169  23.456   5.679  1.00 65.29 LIG 0.24  C 
ATOM     35  N   ALA E  14      -3.887  23.248   5.954  1.00 85.74 LIG-0.35  N 
ATOM     36 H    ALA E  14      -3.244  23.535   5.460  1.00 85.74 LIG 0.16  HD
ATOM     37 O    ALA E  13      -6.089  23.050   6.394  1.00 75.52 LIG-0.27  OA
BRANCH 35 38
ATOM     38  CA  ALA E  14      -3.447  22.511   7.125  1.00 94.46 LIG 0.16  C 
ATOM     39  CB  ALA E  14      -2.338  21.554   6.751  1.00106.12 LIG 0.04  C 
BRANCH 38 40
ATOM     40  C   ALA E  14      -2.982  23.472   8.212  1.00 99.07 LIG 0.22  C 
ATOM     41 O    ALA E  14      -2.712  24.643   7.945  1.00120.33 LIG-0.29  OA
ENDBRANCH 38 40
ENDBRANCH 35 38
ENDBRANCH 32 34
ENDBRANCH 29 32
ENDBRANCH 26 28
ENDBRANCH 23 26
ENDBRANCH 1 22
TORSDOF 13
ENDMDL
MODEL 153
USER: ADFR SOLUTION from run 44
USER: SCORE 5.325985 LL:  -2.535 LR:  -3.784 RR:   0.000 FEB:   0.094
USER: RMSD 4.880450
USER: SEED 43
USER: STATUS no improvement in best in 31 clusters for 5 generations
USER: GENES 15
USER: genes 0 Translation |==|  0.68990 0.35810 0.57714
USER: genes 1 Rotation |==|  0.70948 0.46983 0.57928 0.94601
USER: genes 2 Torsion [CB]-CA--N-[C] |==|  0.18382
USER: genes 3 Torsion [N]-C--CA-[N] |==|  0.14695
USER: genes 4 Torsion [C]-CA--N-[C] |==|  0.61580
USER: genes 5 Torsion [N]-C--CA-[N] |==|  0.46515
USER: genes 6 Torsion [C]-CA--N-[C] |==|  0.81038
USER: genes 7 Torsion [N]-C--CA-[N] |==|  0.33326
USER: genes 8 Torsion [N]-CA--C-[N] |==|  0.05726
USER: genes 9 Torsion [C]-N--CA-[CB] |==|  0.85000
USER: genes 10 Torsion [N]-CA--C-[N] |==|  0.41022
USER: genes 11 Torsion [C]-N--CA-[CB] |==|  0.84065
USER: genes 12 Torsion [N]-CA--C-[N] |==|  0.39951
USER: genes 13 Torsion [C]-N--CA-[C] |==|  0.55989
USER: genes 14 Torsion [N]-CA--C-[O] |==|  0.96844
ROOT
ATOM      1  CA  ALA E  11       3.053  21.075   2.582  1.00 85.35 LIG 0.17  C 
ATOM      2  CB  ALA E  11       2.082  20.290   3.467  1.00 80.46 LIG 0.04  C 
ENDROOT
BRANCH 1 3
ATOM      3  N   ALA E  11       3.586  22.219   3.314  1.00 87.15 LIG-0.35  N 
ATOM      4  C   ALA E  10       4.378  22.034   4.373  1.00 62.15 LIG 0.24  C 
ATOM      5 O    ALA E  10       4.855  20.934   4.655  1.00 65.72 LIG-0.27  OA
ATOM      6 H    ALA E  11       3.350  22.988   3.009  1.00 87.15 LIG 0.16  HD
BRANCH 4 7
ATOM      7  CA  ALA E  10       4.688  23.248   5.241  1.00 66.45 LIG 0.17  C 
ATOM      8  CB  ALA E  10       5.510  22.833   6.461  1.00 58.63 LIG 0.04  C 
BRANCH 7 9
ATOM      9  N   ALA E  10       3.477  23.931   5.673  1.00 75.43 LIG-0.35  N 
ATOM     10  C   ALA E   9       3.361  25.257   5.694  1.00 82.21 LIG 0.24  C 
ATOM     11 O    ALA E   9       4.277  26.027   5.382  1.00 73.75 LIG-0.27  OA
ATOM     12 H    ALA E  10       2.846  23.399   5.913  1.00 75.43 LIG 0.16  HD
BRANCH 10 13
ATOM     13  CA  ALA E   9       2.019  25.804   6.161  1.00 87.65 LIG 0.17  C 
ATOM     14  CB  ALA E   9       0.927  25.530   5.130  1.00 72.21 LIG 0.04  C 
BRANCH 13 15
ATOM     15  N   ALA E   9       2.177  27.233   6.403  1.00 84.24 LIG-0.35  N 
ATOM     16 H    ALA E   9       1.751  27.733   5.847  1.00 84.24 LIG 0.16  HD
ATOM     17  C   ALA E   8       2.917  27.706   7.396  1.00 61.40 LIG 0.26  C 
ATOM     18 O    ALA E   8       3.442  26.979   8.237  1.00 66.21 LIG-0.27  OA
BRANCH 17 19
ATOM     19  CA  ALA E   8       3.062  29.223   7.469  1.00 67.03 LIG 0.40  C 
ATOM     20  N   ALA E   8       2.530  29.741   8.764  1.00 60.26 LIG 0.61  N 
ATOM     21  CB  ALA E   8       4.519  29.632   7.290  1.00 64.64 LIG 0.06  C 
ENDBRANCH 17 19
ENDBRANCH 13 15
ENDBRANCH 10 13
ENDBRANCH 7 9
ENDBRANCH 4 7
ENDBRANCH 1 3
BRANCH 1 22
ATOM     22  C   ALA E  11       2.361  21.508   1.296  1.00 81.78 LIG 0.24  C 
ATOM     23  N   ALA E  12       2.678  22.702   0.799  1.00 82.91 LIG-0.35  N 
ATOM     24 H    ALA E  12       3.320  23.198   1.087  1.00 82.91 LIG 0.16  HD
ATOM     25 O    ALA E  11       1.529  20.773   0.751  1.00 89.30 LIG-0.27  OA
BRANCH 23 26
ATOM     26  CA  ALA E  12       1.917  23.260  -0.311  1.00 61.10 LIG 0.17  C 
ATOM     27  CB  ALA E  12       1.871  22.275  -1.489  1.00 65.27 LIG 0.04  C 
BRANCH 26 28
ATOM     28  C   ALA E  12       0.510  23.621   0.135  1.00 54.59 LIG 0.24  C 
ATOM     29  N   ALA E  13      -0.020  24.675  -0.487  1.00 64.78 LIG-0.35  N 
ATOM     30 H    ALA E  13       0.363  25.089  -1.136  1.00 64.78 LIG 0.16  HD
ATOM     31 O    ALA E  12      -0.089  22.952   0.981  1.00 69.11 LIG-0.27  OA
BRANCH 29 32
ATOM     32  CA  ALA E  13      -1.315  25.221  -0.112  1.00 54.23 LIG 0.17  C 
ATOM     33  CB  ALA E  13      -2.389  24.138  -0.217  1.00 56.27 LIG 0.04  C 
BRANCH 32 34
ATOM     34  C   ALA E  13      -1.324  25.768   1.305  1.00 65.29 LIG 0.24  C 
ATOM     35  N   ALA E  14      -2.061  26.858   1.487  1.00 85.74 LIG-0.35  N 
ATOM     36 H    ALA E  14      -2.479  27.259   0.852  1.00 85.74 LIG 0.16  HD
ATOM     37 O    ALA E  13      -0.733  25.189   2.220  1.00 75.52 LIG-0.27  OA
BRANCH 35 38
ATOM     38  CA  ALA E  14      -2.231  27.478   2.789  1.00 94.46 LIG 0.16  C 
ATOM     39  CB  ALA E  14      -1.017  28.311   3.131  1.00106.12 LIG 0.04  C 
BRANCH 38 40
ATOM     40  C   ALA E  14      -3.491  28.336   2.806  1.00 99.07 LIG 0.22  C 
ATOM     41 O    ALA E  14      -4.089  28.599   1.763  1.00120.33 LIG-0.29  OA
ENDBRANCH 38 40
ENDBRANCH 35 38
ENDBRANCH 32 34
ENDBRANCH 29 32
ENDBRANCH 26 28
ENDBRANCH 23 26
ENDBRANCH 1 22
TORSDOF 13
ENDMDL
MODEL 154
USER: ADFR SOLUTION from run 101
USER: SCORE 5.456135 LL:  -2.905 LR:  -3.779 RR:   0.000 FEB:   0.099
USER: RMSD 4.984339
USER: SEED 100
USER: STATUS no improvement in best in 64 clusters for 5 generations
USER: GENES 15
USER: genes 0 Translation |==|  0.65420 0.34795 0.58676
USER: genes 1 Rotation |==|  0.75744 0.71883 0.48572 0.86829
USER: genes 2 Torsion [CB]-CA--N-[C] |==|  0.17562
USER: genes 3 Torsion [N]-C--CA-[N] |==|  0.13824
USER: genes 4 Torsion [C]-CA--N-[C] |==|  0.17824
USER: genes 5 Torsion [N]-C--CA-[N] |==|  0.13394
USER: genes 6 Torsion [C]-CA--N-[C] |==|  0.75303
USER: genes 7 Torsion [N]-C--CA-[N] |==|  0.43801
USER: genes 8 Torsion [N]-CA--C-[N] |==|  0.10421
USER: genes 9 Torsion [C]-N--CA-[CB] |==|  0.18295
USER: genes 10 Torsion [N]-CA--C-[N] |==|  0.07459
USER: genes 11 Torsion [C]-N--CA-[CB] |==|  0.83949
USER: genes 12 Torsion [N]-CA--C-[N] |==|  0.40585
USER: genes 13 Torsion [C]-N--CA-[C] |==|  0.76275
USER: genes 14 Torsion [N]-CA--C-[O] |==|  0.99508
ROOT
ATOM      1  CA  ALA E  11       2.250  20.892   2.756  1.00 85.35 LIG 0.17  C 
ATOM      2  CB  ALA E  11       2.656  19.867   3.816  1.00 80.46 LIG 0.04  C 
ENDROOT
BRANCH 1 3
ATOM      3  N   ALA E  11       3.100  22.073   2.848  1.00 87.15 LIG-0.35  N 
ATOM      4  C   ALA E  10       4.413  21.980   2.622  1.00 62.15 LIG 0.24  C 
ATOM      5 O    ALA E  10       4.928  20.971   2.138  1.00 65.72 LIG-0.27  OA
ATOM      6 H    ALA E  11       2.691  22.802   3.052  1.00 87.15 LIG 0.16  HD
BRANCH 4 7
ATOM      7  CA  ALA E  10       5.278  23.182   2.985  1.00 66.45 LIG 0.17  C 
ATOM      8  CB  ALA E  10       6.759  22.835   2.840  1.00 58.63 LIG 0.04  C 
BRANCH 7 9
ATOM      9  N   ALA E  10       5.013  23.656   4.335  1.00 75.43 LIG-0.35  N 
ATOM     10  C   ALA E   9       5.257  22.925   5.421  1.00 82.21 LIG 0.24  C 
ATOM     11 O    ALA E   9       5.697  21.771   5.380  1.00 73.75 LIG-0.27  OA
ATOM     12 H    ALA E  10       4.684  24.450   4.366  1.00 75.43 LIG 0.16  HD
BRANCH 10 13
ATOM     13  CA  ALA E   9       4.932  23.582   6.756  1.00 87.65 LIG 0.17  C 
ATOM     14  CB  ALA E   9       5.034  22.576   7.900  1.00 72.21 LIG 0.04  C 
BRANCH 13 15
ATOM     15  N   ALA E   9       3.593  24.149   6.662  1.00 84.24 LIG-0.35  N 
ATOM     16 H    ALA E   9       2.967  23.615   6.912  1.00 84.24 LIG 0.16  HD
ATOM     17  C   ALA E   8       3.375  25.383   6.228  1.00 61.40 LIG 0.26  C 
ATOM     18 O    ALA E   8       4.287  26.165   5.964  1.00 66.21 LIG-0.27  OA
BRANCH 17 19
ATOM     19  CA  ALA E   8       1.916  25.807   6.099  1.00 67.03 LIG 0.40  C 
ATOM     20  N   ALA E   8       1.793  27.295   6.136  1.00 60.26 LIG 0.61  N 
ATOM     21  CB  ALA E   8       1.307  25.256   4.814  1.00 64.64 LIG 0.06  C 
ENDBRANCH 17 19
ENDBRANCH 13 15
ENDBRANCH 10 13
ENDBRANCH 7 9
ENDBRANCH 4 7
ENDBRANCH 1 3
BRANCH 1 22
ATOM     22  C   ALA E  11       0.777  21.252   2.906  1.00 81.78 LIG 0.24  C 
ATOM     23  N   ALA E  12       0.362  22.391   2.355  1.00 82.91 LIG-0.35  N 
ATOM     24 H    ALA E  12       0.836  22.882   1.830  1.00 82.91 LIG 0.16  HD
ATOM     25 O    ALA E  11       0.008  20.510   3.530  1.00 89.30 LIG-0.27  OA
BRANCH 23 26
ATOM     26  CA  ALA E  12      -0.979  22.891   2.625  1.00 61.10 LIG 0.17  C 
ATOM     27  CB  ALA E  12      -1.128  23.279   4.104  1.00 65.27 LIG 0.04  C 
BRANCH 26 28
ATOM     28  C   ALA E  12      -1.296  24.078   1.730  1.00 54.59 LIG 0.24  C 
ATOM     29  N   ALA E  13      -0.637  24.095   0.571  1.00 64.78 LIG-0.35  N 
ATOM     30 H    ALA E  13      -0.120  23.461   0.306  1.00 64.78 LIG 0.16  HD
ATOM     31 O    ALA E  12      -2.131  24.926   2.057  1.00 69.11 LIG-0.27  OA
BRANCH 29 32
ATOM     32  CA  ALA E  13      -0.741  25.208  -0.359  1.00 54.23 LIG 0.17  C 
ATOM     33  CB  ALA E  13      -2.201  25.422  -0.757  1.00 56.27 LIG 0.04  C 
BRANCH 32 34
ATOM     34  C   ALA E  13      -0.212  26.505   0.229  1.00 65.29 LIG 0.24  C 
ATOM     35  N   ALA E  14       0.376  27.322  -0.638  1.00 85.74 LIG-0.35  N 
ATOM     36 H    ALA E  14       0.491  27.130  -1.468  1.00 85.74 LIG 0.16  HD
ATOM     37 O    ALA E  13      -0.382  26.787   1.418  1.00 75.52 LIG-0.27  OA
BRANCH 35 38
ATOM     38  CA  ALA E  14       0.884  28.628  -0.260  1.00 94.46 LIG 0.16  C 
ATOM     39  CB  ALA E  14       2.031  29.022  -1.163  1.00106.12 LIG 0.04  C 
BRANCH 38 40
ATOM     40  C   ALA E  14      -0.228  29.668  -0.323  1.00 99.07 LIG 0.22  C 
ATOM     41 O    ALA E  14      -1.362  29.357  -0.690  1.00120.33 LIG-0.29  OA
ENDBRANCH 38 40
ENDBRANCH 35 38
ENDBRANCH 32 34
ENDBRANCH 29 32
ENDBRANCH 26 28
ENDBRANCH 23 26
ENDBRANCH 1 22
TORSDOF 13
ENDMDL
MODEL 155
USER: ADFR SOLUTION from run 46
USER: SCORE 5.747107 LL:  -2.859 LR:  -3.779 RR:   0.000 FEB:   0.099
USER: RMSD 3.646549
USER: SEED 45
USER: STATUS no improvement in best in 31 clusters for 5 generations
USER: GENES 15
USER: genes 0 Translation |==|  0.63924 0.31594 0.61638
USER: genes 1 Rotation |==|  0.81167 0.73167 0.58406 0.80352
USER: genes 2 Torsion [CB]-CA--N-[C] |==|  0.15320
USER: genes 3 Torsion [N]-C--CA-[N] |==|  0.01968
USER: genes 4 Torsion [C]-CA--N-[C] |==|  0.76252
USER: genes 5 Torsion [N]-C--CA-[N] |==|  0.37021
USER: genes 6 Torsion [C]-CA--N-[C] |==|  0.84233
USER: genes 7 Torsion [N]-C--CA-[N] |==|  0.28900
USER: genes 8 Torsion [N]-CA--C-[N] |==|  0.11886
USER: genes 9 Torsion [C]-N--CA-[CB] |==|  0.17906
USER: genes 10 Torsion [N]-CA--C-[N] |==|  0.05714
USER: genes 11 Torsion [C]-N--CA-[CB] |==|  0.52778
USER: genes 12 Torsion [N]-CA--C-[N] |==|  0.42832
USER: genes 13 Torsion [C]-N--CA-[C] |==|  0.74521
USER: genes 14 Torsion [N]-CA--C-[O] |==|  0.01647
ROOT
ATOM      1  CA  ALA E  11       1.913  20.316   3.289  1.00 85.35 LIG 0.17  C 
ATOM      2  CB  ALA E  11       2.528  19.020   3.819  1.00 80.46 LIG 0.04  C 
ENDROOT
BRANCH 1 3
ATOM      3  N   ALA E  11       2.482  21.464   3.986  1.00 87.15 LIG-0.35  N 
ATOM      4  C   ALA E  10       3.805  21.648   4.015  1.00 62.15 LIG 0.24  C 
ATOM      5 O    ALA E  10       4.576  21.001   3.306  1.00 65.72 LIG-0.27  OA
ATOM      6 H    ALA E  11       1.908  21.985   4.359  1.00 87.15 LIG 0.16  HD
BRANCH 4 7
ATOM      7  CA  ALA E  10       4.347  22.708   4.968  1.00 66.45 LIG 0.17  C 
ATOM      8  CB  ALA E  10       5.476  22.130   5.819  1.00 58.63 LIG 0.04  C 
BRANCH 7 9
ATOM      9  N   ALA E  10       3.306  23.248   5.830  1.00 75.43 LIG-0.35  N 
ATOM     10  C   ALA E   9       2.513  24.253   5.467  1.00 82.21 LIG 0.24  C 
ATOM     11 O    ALA E   9       2.608  24.840   4.383  1.00 73.75 LIG-0.27  OA
ATOM     12 H    ALA E  10       3.253  22.858   6.595  1.00 75.43 LIG 0.16  HD
BRANCH 10 13
ATOM     13  CA  ALA E   9       1.468  24.683   6.489  1.00 87.65 LIG 0.17  C 
ATOM     14  CB  ALA E   9       0.079  24.183   6.097  1.00 72.21 LIG 0.04  C 
BRANCH 13 15
ATOM     15  N   ALA E   9       1.504  26.137   6.581  1.00 84.24 LIG-0.35  N 
ATOM     16 H    ALA E   9       0.750  26.519   6.421  1.00 84.24 LIG 0.16  HD
ATOM     17  C   ALA E   8       2.611  26.800   6.887  1.00 61.40 LIG 0.26  C 
ATOM     18 O    ALA E   8       3.656  26.237   7.205  1.00 66.21 LIG-0.27  OA
BRANCH 17 19
ATOM     19  CA  ALA E   8       2.518  28.323   6.857  1.00 67.03 LIG 0.40  C 
ATOM     20  N   ALA E   8       2.448  28.874   8.244  1.00 60.26 LIG 0.61  N 
ATOM     21  CB  ALA E   8       3.703  28.920   6.107  1.00 64.64 LIG 0.06  C 
ENDBRANCH 17 19
ENDBRANCH 13 15
ENDBRANCH 10 13
ENDBRANCH 7 9
ENDBRANCH 4 7
ENDBRANCH 1 3
BRANCH 1 22
ATOM     22  C   ALA E  11       0.396  20.275   3.427  1.00 81.78 LIG 0.24  C 
ATOM     23  N   ALA E  12      -0.265  21.423   3.293  1.00 82.91 LIG-0.35  N 
ATOM     24 H    ALA E  12       0.086  22.162   3.027  1.00 82.91 LIG 0.16  HD
ATOM     25 O    ALA E  11      -0.186  19.210   3.668  1.00 89.30 LIG-0.27  OA
BRANCH 23 26
ATOM     26  CA  ALA E  12      -1.686  21.492   3.605  1.00 61.10 LIG 0.17  C 
ATOM     27  CB  ALA E  12      -1.930  21.223   5.098  1.00 65.27 LIG 0.04  C 
BRANCH 26 28
ATOM     28  C   ALA E  12      -2.254  22.845   3.209  1.00 54.59 LIG 0.24  C 
ATOM     29  N   ALA E  13      -1.533  23.511   2.307  1.00 64.78 LIG-0.35  N 
ATOM     30 H    ALA E  13      -0.835  23.189   1.921  1.00 64.78 LIG 0.16  HD
ATOM     31 O    ALA E  12      -3.322  23.255   3.672  1.00 69.11 LIG-0.27  OA
BRANCH 29 32
ATOM     32  CA  ALA E  13      -1.874  24.863   1.893  1.00 54.23 LIG 0.17  C 
ATOM     33  CB  ALA E  13      -1.029  25.267   0.685  1.00 56.27 LIG 0.04  C 
BRANCH 32 34
ATOM     34  C   ALA E  13      -3.339  25.002   1.520  1.00 65.29 LIG 0.24  C 
ATOM     35  N   ALA E  14      -3.843  26.224   1.652  1.00 85.74 LIG-0.35  N 
ATOM     36 H    ALA E  14      -3.397  26.890   1.962  1.00 85.74 LIG 0.16  HD
ATOM     37 O    ALA E  13      -3.979  24.050   1.068  1.00 75.52 LIG-0.27  OA
BRANCH 35 38
ATOM     38  CA  ALA E  14      -5.210  26.549   1.283  1.00 94.46 LIG 0.16  C 
ATOM     39  CB  ALA E  14      -5.764  27.601   2.217  1.00106.12 LIG 0.04  C 
BRANCH 38 40
ATOM     40  C   ALA E  14      -5.267  27.031  -0.162  1.00 99.07 LIG 0.22  C 
ATOM     41 O    ALA E  14      -4.266  27.000  -0.877  1.00120.33 LIG-0.29  OA
ENDBRANCH 38 40
ENDBRANCH 35 38
ENDBRANCH 32 34
ENDBRANCH 29 32
ENDBRANCH 26 28
ENDBRANCH 23 26
ENDBRANCH 1 22
TORSDOF 13
ENDMDL
MODEL 156
USER: ADFR SOLUTION from run 189
USER: SCORE 4.343002 LL:  -2.533 LR:  -3.767 RR:   0.000 FEB:   0.111
USER: RMSD 3.752848
USER: SEED 188
USER: STATUS searching
USER: GENES 15
USER: genes 0 Translation |==|  0.52831 0.44429 0.69274
USER: genes 1 Rotation |==|  0.46384 0.33999 0.49274 0.97227
USER: genes 2 Torsion [CB]-CA--N-[C] |==|  0.49043
USER: genes 3 Torsion [N]-C--CA-[N] |==|  0.46032
USER: genes 4 Torsion [C]-CA--N-[C] |==|  0.80349
USER: genes 5 Torsion [N]-C--CA-[N] |==|  0.01085
USER: genes 6 Torsion [C]-CA--N-[C] |==|  0.76121
USER: genes 7 Torsion [N]-C--CA-[N] |==|  0.59814
USER: genes 8 Torsion [N]-CA--C-[N] |==|  0.89241
USER: genes 9 Torsion [C]-N--CA-[CB] |==|  0.84357
USER: genes 10 Torsion [N]-CA--C-[N] |==|  0.40157
USER: genes 11 Torsion [C]-N--CA-[CB] |==|  0.84902
USER: genes 12 Torsion [N]-CA--C-[N] |==|  0.38623
USER: genes 13 Torsion [C]-N--CA-[C] |==|  0.74675
USER: genes 14 Torsion [N]-CA--C-[O] |==|  0.99536
ROOT
ATOM      1  CA  ALA E  11      -0.583  22.626   4.663  1.00 85.35 LIG 0.17  C 
ATOM      2  CB  ALA E  11      -1.939  23.269   4.962  1.00 80.46 LIG 0.04  C 
ENDROOT
BRANCH 1 3
ATOM      3  N   ALA E  11       0.481  23.615   4.794  1.00 87.15 LIG-0.35  N 
ATOM      4  C   ALA E  10       1.759  23.256   4.645  1.00 62.15 LIG 0.24  C 
ATOM      5 O    ALA E  10       2.087  22.156   4.199  1.00 65.72 LIG-0.27  OA
ATOM      6 H    ALA E  11       0.216  24.414   4.969  1.00 87.15 LIG 0.16  HD
BRANCH 4 7
ATOM      7  CA  ALA E  10       2.826  24.269   5.046  1.00 66.45 LIG 0.17  C 
ATOM      8  CB  ALA E  10       2.871  25.419   4.042  1.00 58.63 LIG 0.04  C 
BRANCH 7 9
ATOM      9  N   ALA E  10       4.143  23.658   5.154  1.00 75.43 LIG-0.35  N 
ATOM     10  C   ALA E   9       4.474  22.816   6.131  1.00 82.21 LIG 0.24  C 
ATOM     11 O    ALA E   9       3.708  22.504   7.050  1.00 73.75 LIG-0.27  OA
ATOM     12 H    ALA E  10       4.686  23.892   4.530  1.00 75.43 LIG 0.16  HD
BRANCH 10 13
ATOM     13  CA  ALA E   9       5.890  22.260   6.083  1.00 87.65 LIG 0.17  C 
ATOM     14  CB  ALA E   9       6.618  22.498   7.405  1.00 72.21 LIG 0.04  C 
BRANCH 13 15
ATOM     15  N   ALA E   9       6.584  22.895   4.970  1.00 84.24 LIG-0.35  N 
ATOM     16 H    ALA E   9       7.038  23.592   5.191  1.00 84.24 LIG 0.16  HD
ATOM     17  C   ALA E   8       6.512  22.428   3.732  1.00 61.40 LIG 0.26  C 
ATOM     18 O    ALA E   8       5.937  21.379   3.450  1.00 66.21 LIG-0.27  OA
BRANCH 17 19
ATOM     19  CA  ALA E   8       7.217  23.251   2.657  1.00 67.03 LIG 0.40  C 
ATOM     20  N   ALA E   8       6.453  23.207   1.374  1.00 60.26 LIG 0.61  N 
ATOM     21  CB  ALA E   8       7.399  24.693   3.117  1.00 64.64 LIG 0.06  C 
ENDBRANCH 17 19
ENDBRANCH 13 15
ENDBRANCH 10 13
ENDBRANCH 7 9
ENDBRANCH 4 7
ENDBRANCH 1 3
BRANCH 1 22
ATOM     22  C   ALA E  11      -0.592  21.996   3.276  1.00 81.78 LIG 0.24  C 
ATOM     23  N   ALA E  12      -0.337  22.791   2.238  1.00 82.91 LIG-0.35  N 
ATOM     24 H    ALA E  12      -0.060  23.603   2.300  1.00 82.91 LIG 0.16  HD
ATOM     25 O    ALA E  11      -0.842  20.793   3.132  1.00 89.30 LIG-0.27  OA
BRANCH 23 26
ATOM     26  CA  ALA E  12      -0.520  22.303   0.878  1.00 61.10 LIG 0.17  C 
ATOM     27  CB  ALA E  12       0.307  21.031   0.639  1.00 65.27 LIG 0.04  C 
BRANCH 26 28
ATOM     28  C   ALA E  12      -1.992  22.040   0.601  1.00 54.59 LIG 0.24  C 
ATOM     29  N   ALA E  13      -2.383  22.314  -0.644  1.00 64.78 LIG-0.35  N 
ATOM     30 H    ALA E  13      -1.847  22.559  -1.270  1.00 64.78 LIG 0.16  HD
ATOM     31 O    ALA E  12      -2.736  21.572   1.466  1.00 69.11 LIG-0.27  OA
BRANCH 29 32
ATOM     32  CA  ALA E  13      -3.775  22.220  -1.053  1.00 54.23 LIG 0.17  C 
ATOM     33  CB  ALA E  13      -4.324  20.832  -0.723  1.00 56.27 LIG 0.04  C 
BRANCH 32 34
ATOM     34  C   ALA E  13      -4.651  23.255  -0.370  1.00 65.29 LIG 0.24  C 
ATOM     35  N   ALA E  14      -5.563  23.828  -1.147  1.00 85.74 LIG-0.35  N 
ATOM     36 H    ALA E  14      -5.641  23.664  -1.987  1.00 85.74 LIG 0.16  HD
ATOM     37 O    ALA E  13      -4.548  23.486   0.838  1.00 75.52 LIG-0.27  OA
BRANCH 35 38
ATOM     38  CA  ALA E  14      -6.523  24.794  -0.643  1.00 94.46 LIG 0.16  C 
ATOM     39  CB  ALA E  14      -6.831  25.824  -1.706  1.00106.12 LIG 0.04  C 
BRANCH 38 40
ATOM     40  C   ALA E  14      -7.798  24.090  -0.195  1.00 99.07 LIG 0.22  C 
ATOM     41 O    ALA E  14      -7.920  22.871  -0.314  1.00120.33 LIG-0.29  OA
ENDBRANCH 38 40
ENDBRANCH 35 38
ENDBRANCH 32 34
ENDBRANCH 29 32
ENDBRANCH 26 28
ENDBRANCH 23 26
ENDBRANCH 1 22
TORSDOF 13
ENDMDL
MODEL 157
USER: ADFR SOLUTION from run 139
USER: SCORE 5.527938 LL:  -2.649 LR:  -3.774 RR:   0.000 FEB:   0.104
USER: RMSD 4.407931
USER: SEED 138
USER: STATUS no improvement in best in 42 clusters for 5 generations
USER: GENES 15
USER: genes 0 Translation |==|  0.66252 0.38688 0.54757
USER: genes 1 Rotation |==|  0.85799 0.82163 0.59658 0.59523
USER: genes 2 Torsion [CB]-CA--N-[C] |==|  0.83597
USER: genes 3 Torsion [N]-C--CA-[N] |==|  0.20032
USER: genes 4 Torsion [C]-CA--N-[C] |==|  0.79681
USER: genes 5 Torsion [N]-C--CA-[N] |==|  0.36164
USER: genes 6 Torsion [C]-CA--N-[C] |==|  0.83507
USER: genes 7 Torsion [N]-C--CA-[N] |==|  0.34460
USER: genes 8 Torsion [N]-CA--C-[N] |==|  0.35002
USER: genes 9 Torsion [C]-N--CA-[CB] |==|  0.16622
USER: genes 10 Torsion [N]-CA--C-[N] |==|  0.09476
USER: genes 11 Torsion [C]-N--CA-[CB] |==|  0.15323
USER: genes 12 Torsion [N]-CA--C-[N] |==|  0.11353
USER: genes 13 Torsion [C]-N--CA-[C] |==|  0.78334
USER: genes 14 Torsion [N]-CA--C-[O] |==|  0.96852
ROOT
ATOM      1  CA  ALA E  11       2.437  21.593   2.050  1.00 85.35 LIG 0.17  C 
ATOM      2  CB  ALA E  11       3.370  20.636   1.305  1.00 80.46 LIG 0.04  C 
ENDROOT
BRANCH 1 3
ATOM      3  N   ALA E  11       3.205  22.438   2.958  1.00 87.15 LIG-0.35  N 
ATOM      4  C   ALA E  10       3.947  21.891   3.925  1.00 62.15 LIG 0.24  C 
ATOM      5 O    ALA E  10       4.181  20.682   3.971  1.00 65.72 LIG-0.27  OA
ATOM      6 H    ALA E  11       3.136  23.283   2.815  1.00 87.15 LIG 0.16  HD
BRANCH 4 7
ATOM      7  CA  ALA E  10       4.513  22.823   4.991  1.00 66.45 LIG 0.17  C 
ATOM      8  CB  ALA E  10       5.609  22.116   5.786  1.00 58.63 LIG 0.04  C 
BRANCH 7 9
ATOM      9  N   ALA E  10       3.480  23.305   5.895  1.00 75.43 LIG-0.35  N 
ATOM     10  C   ALA E   9       2.572  24.212   5.542  1.00 82.21 LIG 0.24  C 
ATOM     11 O    ALA E   9       2.544  24.751   4.430  1.00 73.75 LIG-0.27  OA
ATOM     12 H    ALA E  10       3.511  22.950   6.678  1.00 75.43 LIG 0.16  HD
BRANCH 10 13
ATOM     13  CA  ALA E   9       1.556  24.593   6.610  1.00 87.65 LIG 0.17  C 
ATOM     14  CB  ALA E   9       0.181  24.009   6.292  1.00 72.21 LIG 0.04  C 
BRANCH 13 15
ATOM     15  N   ALA E   9       1.512  26.048   6.689  1.00 84.24 LIG-0.35  N 
ATOM     16 H    ALA E   9       0.737  26.385   6.528  1.00 84.24 LIG 0.16  HD
ATOM     17  C   ALA E   8       2.582  26.774   6.984  1.00 61.40 LIG 0.26  C 
ATOM     18 O    ALA E   8       3.657  26.272   7.303  1.00 66.21 LIG-0.27  OA
BRANCH 17 19
ATOM     19  CA  ALA E   8       2.404  28.288   6.939  1.00 67.03 LIG 0.40  C 
ATOM     20  N   ALA E   8       2.786  28.902   8.246  1.00 60.26 LIG 0.61  N 
ATOM     21  CB  ALA E   8       3.227  28.893   5.807  1.00 64.64 LIG 0.06  C 
ENDBRANCH 17 19
ENDBRANCH 13 15
ENDBRANCH 10 13
ENDBRANCH 7 9
ENDBRANCH 4 7
ENDBRANCH 1 3
BRANCH 1 22
ATOM     22  C   ALA E  11       1.361  20.810   2.792  1.00 81.78 LIG 0.24  C 
ATOM     23  N   ALA E  12       0.108  20.917   2.352  1.00 82.91 LIG-0.35  N 
ATOM     24 H    ALA E  12      -0.122  21.304   1.618  1.00 82.91 LIG 0.16  HD
ATOM     25 O    ALA E  11       1.652  20.114   3.773  1.00 89.30 LIG-0.27  OA
BRANCH 23 26
ATOM     26  CA  ALA E  12      -0.991  20.356   3.125  1.00 61.10 LIG 0.17  C 
ATOM     27  CB  ALA E  12      -1.056  20.994   4.521  1.00 65.27 LIG 0.04  C 
BRANCH 26 28
ATOM     28  C   ALA E  12      -2.310  20.546   2.393  1.00 54.59 LIG 0.24  C 
ATOM     29  N   ALA E  13      -2.225  20.477   1.064  1.00 64.78 LIG-0.35  N 
ATOM     30 H    ALA E  13      -1.504  20.277   0.641  1.00 64.78 LIG 0.16  HD
ATOM     31 O    ALA E  12      -3.368  20.711   3.005  1.00 69.11 LIG-0.27  OA
BRANCH 29 32
ATOM     32  CA  ALA E  13      -3.368  20.738   0.204  1.00 54.23 LIG 0.17  C 
ATOM     33  CB  ALA E  13      -3.952  22.117   0.515  1.00 56.27 LIG 0.04  C 
BRANCH 32 34
ATOM     34  C   ALA E  13      -3.006  20.695  -1.270  1.00 65.29 LIG 0.24  C 
ATOM     35  N   ALA E  14      -2.171  19.722  -1.620  1.00 85.74 LIG-0.35  N 
ATOM     36 H    ALA E  14      -1.823  19.172  -1.059  1.00 85.74 LIG 0.16  HD
ATOM     37 O    ALA E  13      -3.511  21.478  -2.078  1.00 75.52 LIG-0.27  OA
BRANCH 35 38
ATOM     38  CA  ALA E  14      -1.767  19.497  -2.996  1.00 94.46 LIG 0.16  C 
ATOM     39  CB  ALA E  14      -0.485  18.697  -3.037  1.00106.12 LIG 0.04  C 
BRANCH 38 40
ATOM     40  C   ALA E  14      -2.872  18.777  -3.762  1.00 99.07 LIG 0.22  C 
ATOM     41 O    ALA E  14      -3.833  18.287  -3.169  1.00120.33 LIG-0.29  OA
ENDBRANCH 38 40
ENDBRANCH 35 38
ENDBRANCH 32 34
ENDBRANCH 29 32
ENDBRANCH 26 28
ENDBRANCH 23 26
ENDBRANCH 1 22
TORSDOF 13
ENDMDL
MODEL 158
USER: ADFR SOLUTION from run 35
USER: SCORE 5.452909 LL:  -3.125 LR:  -3.765 RR:   0.000 FEB:   0.113
USER: RMSD 5.421370
USER: SEED 34
USER: STATUS no improvement in best in 77 clusters for 5 generations
USER: GENES 15
USER: genes 0 Translation |==|  0.65875 0.35635 0.58474
USER: genes 1 Rotation |==|  0.76177 0.65625 0.51770 0.89592
USER: genes 2 Torsion [CB]-CA--N-[C] |==|  0.13808
USER: genes 3 Torsion [N]-C--CA-[N] |==|  0.05325
USER: genes 4 Torsion [C]-CA--N-[C] |==|  0.20391
USER: genes 5 Torsion [N]-C--CA-[N] |==|  0.01415
USER: genes 6 Torsion [C]-CA--N-[C] |==|  0.71566
USER: genes 7 Torsion [N]-C--CA-[N] |==|  0.37053
USER: genes 8 Torsion [N]-CA--C-[N] |==|  0.04387
USER: genes 9 Torsion [C]-N--CA-[CB] |==|  0.83723
USER: genes 10 Torsion [N]-CA--C-[N] |==|  0.99619
USER: genes 11 Torsion [C]-N--CA-[CB] |==|  0.84865
USER: genes 12 Torsion [N]-CA--C-[N] |==|  0.95069
USER: genes 13 Torsion [C]-N--CA-[C] |==|  0.56953
USER: genes 14 Torsion [N]-CA--C-[O] |==|  0.03053
ROOT
ATOM      1  CA  ALA E  11       2.352  21.043   2.719  1.00 85.35 LIG 0.17  C 
ATOM      2  CB  ALA E  11       2.387  20.004   3.842  1.00 80.46 LIG 0.04  C 
ENDROOT
BRANCH 1 3
ATOM      3  N   ALA E  11       3.182  22.190   3.071  1.00 87.15 LIG-0.35  N 
ATOM      4  C   ALA E  10       4.433  22.012   3.504  1.00 62.15 LIG 0.24  C 
ATOM      5 O    ALA E  10       5.005  20.924   3.434  1.00 65.72 LIG-0.27  OA
ATOM      6 H    ALA E  11       2.803  22.957   2.977  1.00 87.15 LIG 0.16  HD
BRANCH 4 7
ATOM      7  CA  ALA E  10       5.152  23.219   4.096  1.00 66.45 LIG 0.17  C 
ATOM      8  CB  ALA E  10       6.006  22.795   5.290  1.00 58.63 LIG 0.04  C 
BRANCH 7 9
ATOM      9  N   ALA E  10       4.221  24.262   4.502  1.00 75.43 LIG-0.35  N 
ATOM     10  C   ALA E   9       3.446  24.163   5.580  1.00 82.21 LIG 0.24  C 
ATOM     11 O    ALA E   9       3.422  23.168   6.313  1.00 73.75 LIG-0.27  OA
ATOM     12 H    ALA E  10       4.218  24.946   3.981  1.00 75.43 LIG 0.16  HD
BRANCH 10 13
ATOM     13  CA  ALA E   9       2.541  25.354   5.865  1.00 87.65 LIG 0.17  C 
ATOM     14  CB  ALA E   9       1.091  24.910   6.042  1.00 72.21 LIG 0.04  C 
BRANCH 13 15
ATOM     15  N   ALA E   9       2.679  26.296   4.761  1.00 84.24 LIG-0.35  N 
ATOM     16 H    ALA E   9       2.248  26.071   4.051  1.00 84.24 LIG 0.16  HD
ATOM     17  C   ALA E   8       3.409  27.398   4.857  1.00 61.40 LIG 0.26  C 
ATOM     18 O    ALA E   8       3.942  27.752   5.907  1.00 66.21 LIG-0.27  OA
BRANCH 17 19
ATOM     19  CA  ALA E   8       3.533  28.240   3.591  1.00 67.03 LIG 0.40  C 
ATOM     20  N   ALA E   8       3.300  29.684   3.893  1.00 60.26 LIG 0.61  N 
ATOM     21  CB  ALA E   8       4.902  28.046   2.949  1.00 64.64 LIG 0.06  C 
ENDBRANCH 17 19
ENDBRANCH 13 15
ENDBRANCH 10 13
ENDBRANCH 7 9
ENDBRANCH 4 7
ENDBRANCH 1 3
BRANCH 1 22
ATOM     22  C   ALA E  11       0.915  21.461   2.432  1.00 81.78 LIG 0.24  C 
ATOM     23  N   ALA E  12       0.682  22.754   2.216  1.00 82.91 LIG-0.35  N 
ATOM     24 H    ALA E  12       1.293  23.352   2.117  1.00 82.91 LIG 0.16  HD
ATOM     25 O    ALA E  11       0.007  20.621   2.415  1.00 89.30 LIG-0.27  OA
BRANCH 23 26
ATOM     26  CA  ALA E  12      -0.686  23.248   2.129  1.00 61.10 LIG 0.17  C 
ATOM     27  CB  ALA E  12      -1.451  22.538   1.002  1.00 65.27 LIG 0.04  C 
BRANCH 26 28
ATOM     28  C   ALA E  12      -1.403  23.065   3.457  1.00 54.59 LIG 0.24  C 
ATOM     29  N   ALA E  13      -0.677  22.478   4.408  1.00 64.78 LIG-0.35  N 
ATOM     30 H    ALA E  13       0.153  22.273   4.317  1.00 64.78 LIG 0.16  HD
ATOM     31 O    ALA E  12      -2.556  23.471   3.627  1.00 69.11 LIG-0.27  OA
BRANCH 29 32
ATOM     32  CA  ALA E  13      -1.238  22.131   5.704  1.00 54.23 LIG 0.17  C 
ATOM     33  CB  ALA E  13      -1.872  23.366   6.346  1.00 56.27 LIG 0.04  C 
BRANCH 32 34
ATOM     34  C   ALA E  13      -2.297  21.048   5.605  1.00 65.29 LIG 0.24  C 
ATOM     35  N   ALA E  14      -2.802  20.857   4.391  1.00 85.74 LIG-0.35  N 
ATOM     36 H    ALA E  14      -2.583  21.330   3.708  1.00 85.74 LIG 0.16  HD
ATOM     37 O    ALA E  13      -2.606  20.362   6.582  1.00 75.52 LIG-0.27  OA
BRANCH 35 38
ATOM     38  CA  ALA E  14      -3.779  19.822   4.105  1.00 94.46 LIG 0.16  C 
ATOM     39  CB  ALA E  14      -5.166  20.302   4.466  1.00106.12 LIG 0.04  C 
BRANCH 38 40
ATOM     40  C   ALA E  14      -3.715  19.427   2.634  1.00 99.07 LIG 0.22  C 
ATOM     41 O    ALA E  14      -2.791  19.811   1.917  1.00120.33 LIG-0.29  OA
ENDBRANCH 38 40
ENDBRANCH 35 38
ENDBRANCH 32 34
ENDBRANCH 29 32
ENDBRANCH 26 28
ENDBRANCH 23 26
ENDBRANCH 1 22
TORSDOF 13
ENDMDL
MODEL 159
USER: ADFR SOLUTION from run 66
USER: SCORE 4.851869 LL:  -2.450 LR:  -3.760 RR:   0.000 FEB:   0.118
USER: RMSD 4.701269
USER: SEED 65
USER: STATUS no improvement in best in 67 clusters for 5 generations
USER: GENES 15
USER: genes 0 Translation |==|  0.66658 0.32511 0.57125
USER: genes 1 Rotation |==|  0.69890 0.60046 0.53651 0.94611
USER: genes 2 Torsion [CB]-CA--N-[C] |==|  0.14388
USER: genes 3 Torsion [N]-C--CA-[N] |==|  0.14562
USER: genes 4 Torsion [C]-CA--N-[C] |==|  0.19054
USER: genes 5 Torsion [N]-C--CA-[N] |==|  0.96681
USER: genes 6 Torsion [C]-CA--N-[C] |==|  0.81986
USER: genes 7 Torsion [N]-C--CA-[N] |==|  0.32368
USER: genes 8 Torsion [N]-CA--C-[N] |==|  0.13037
USER: genes 9 Torsion [C]-N--CA-[CB] |==|  0.50414
USER: genes 10 Torsion [N]-CA--C-[N] |==|  0.43111
USER: genes 11 Torsion [C]-N--CA-[CB] |==|  0.51672
USER: genes 12 Torsion [N]-CA--C-[N] |==|  0.43906
USER: genes 13 Torsion [C]-N--CA-[C] |==|  0.79507
USER: genes 14 Torsion [N]-CA--C-[O] |==|  0.95787
ROOT
ATOM      1  CA  ALA E  11       2.528  20.481   2.477  1.00 85.35 LIG 0.17  C 
ATOM      2  CB  ALA E  11       2.217  19.780   3.800  1.00 80.46 LIG 0.04  C 
ENDROOT
BRANCH 1 3
ATOM      3  N   ALA E  11       3.252  21.723   2.724  1.00 87.15 LIG-0.35  N 
ATOM      4  C   ALA E  10       4.348  21.725   3.488  1.00 62.15 LIG 0.24  C 
ATOM      5 O    ALA E  10       4.907  20.686   3.841  1.00 65.72 LIG-0.27  OA
ATOM      6 H    ALA E  11       2.919  22.420   2.347  1.00 87.15 LIG 0.16  HD
BRANCH 4 7
ATOM      7  CA  ALA E  10       4.904  23.078   3.917  1.00 66.45 LIG 0.17  C 
ATOM      8  CB  ALA E  10       6.076  22.890   4.879  1.00 58.63 LIG 0.04  C 
BRANCH 7 9
ATOM      9  N   ALA E  10       3.887  23.913   4.538  1.00 75.43 LIG-0.35  N 
ATOM     10  C   ALA E   9       3.348  23.638   5.723  1.00 82.21 LIG 0.24  C 
ATOM     11 O    ALA E   9       3.636  22.636   6.387  1.00 73.75 LIG-0.27  OA
ATOM     12 H    ALA E  10       3.666  24.599   4.067  1.00 75.43 LIG 0.16  HD
BRANCH 10 13
ATOM     13  CA  ALA E   9       2.306  24.627   6.230  1.00 87.65 LIG 0.17  C 
ATOM     14  CB  ALA E   9       0.911  24.004   6.225  1.00 72.21 LIG 0.04  C 
BRANCH 13 15
ATOM     15  N   ALA E   9       2.364  25.812   5.384  1.00 84.24 LIG-0.35  N 
ATOM     16 H    ALA E   9       1.650  25.951   4.924  1.00 84.24 LIG 0.16  HD
ATOM     17  C   ALA E   8       3.430  26.597   5.337  1.00 61.40 LIG 0.26  C 
ATOM     18 O    ALA E   8       4.405  26.438   6.069  1.00 66.21 LIG-0.27  OA
BRANCH 17 19
ATOM     19  CA  ALA E   8       3.379  27.748   4.337  1.00 67.03 LIG 0.40  C 
ATOM     20  N   ALA E   8       3.427  29.063   5.044  1.00 60.26 LIG 0.61  N 
ATOM     21  CB  ALA E   8       4.523  27.642   3.335  1.00 64.64 LIG 0.06  C 
ENDBRANCH 17 19
ENDBRANCH 13 15
ENDBRANCH 10 13
ENDBRANCH 7 9
ENDBRANCH 4 7
ENDBRANCH 1 3
BRANCH 1 22
ATOM     22  C   ALA E  11       1.243  20.730   1.697  1.00 81.78 LIG 0.24  C 
ATOM     23  N   ALA E  12       1.317  21.518   0.625  1.00 82.91 LIG-0.35  N 
ATOM     24 H    ALA E  12       2.050  21.805   0.278  1.00 82.91 LIG 0.16  HD
ATOM     25 O    ALA E  11       0.176  20.224   2.063  1.00 89.30 LIG-0.27  OA
BRANCH 23 26
ATOM     26  CA  ALA E  12       0.102  21.954  -0.049  1.00 61.10 LIG 0.17  C 
ATOM     27  CB  ALA E  12       0.439  22.819  -1.273  1.00 65.27 LIG 0.04  C 
BRANCH 26 28
ATOM     28  C   ALA E  12      -0.739  20.756  -0.460  1.00 54.59 LIG 0.24  C 
ATOM     29  N   ALA E  13      -2.041  21.009  -0.597  1.00 64.78 LIG-0.35  N 
ATOM     30 H    ALA E  13      -2.386  21.794  -0.526  1.00 64.78 LIG 0.16  HD
ATOM     31 O    ALA E  12      -0.227  19.656  -0.682  1.00 69.11 LIG-0.27  OA
BRANCH 29 32
ATOM     32  CA  ALA E  13      -3.005  19.958  -0.883  1.00 54.23 LIG 0.17  C 
ATOM     33  CB  ALA E  13      -4.385  20.568  -1.130  1.00 56.27 LIG 0.04  C 
BRANCH 32 34
ATOM     34  C   ALA E  13      -2.621  19.136  -2.100  1.00 65.29 LIG 0.24  C 
ATOM     35  N   ALA E  14      -3.163  17.925  -2.160  1.00 85.74 LIG-0.35  N 
ATOM     36 H    ALA E  14      -3.667  17.600  -1.544  1.00 85.74 LIG 0.16  HD
ATOM     37 O    ALA E  13      -1.905  19.603  -2.989  1.00 75.52 LIG-0.27  OA
BRANCH 35 38
ATOM     38  CA  ALA E  14      -2.952  17.029  -3.283  1.00 94.46 LIG 0.16  C 
ATOM     39  CB  ALA E  14      -3.347  15.620  -2.906  1.00106.12 LIG 0.04  C 
BRANCH 38 40
ATOM     40  C   ALA E  14      -3.748  17.502  -4.495  1.00 99.07 LIG 0.22  C 
ATOM     41 O    ALA E  14      -4.648  18.333  -4.372  1.00120.33 LIG-0.29  OA
ENDBRANCH 38 40
ENDBRANCH 35 38
ENDBRANCH 32 34
ENDBRANCH 29 32
ENDBRANCH 26 28
ENDBRANCH 23 26
ENDBRANCH 1 22
TORSDOF 13
ENDMDL
MODEL 160
USER: ADFR SOLUTION from run 139
USER: SCORE 5.223082 LL:  -2.754 LR:  -3.761 RR:   0.000 FEB:   0.117
USER: RMSD 4.380674
USER: SEED 138
USER: STATUS no improvement in best in 42 clusters for 5 generations
USER: GENES 15
USER: genes 0 Translation |==|  0.64737 0.33180 0.61383
USER: genes 1 Rotation |==|  0.81838 0.69968 0.58867 0.81765
USER: genes 2 Torsion [CB]-CA--N-[C] |==|  0.15030
USER: genes 3 Torsion [N]-C--CA-[N] |==|  0.04180
USER: genes 4 Torsion [C]-CA--N-[C] |==|  0.78653
USER: genes 5 Torsion [N]-C--CA-[N] |==|  0.36298
USER: genes 6 Torsion [C]-CA--N-[C] |==|  0.84498
USER: genes 7 Torsion [N]-C--CA-[N] |==|  0.33726
USER: genes 8 Torsion [N]-CA--C-[N] |==|  0.19375
USER: genes 9 Torsion [C]-N--CA-[CB] |==|  0.18447
USER: genes 10 Torsion [N]-CA--C-[N] |==|  0.10051
USER: genes 11 Torsion [C]-N--CA-[CB] |==|  0.16330
USER: genes 12 Torsion [N]-CA--C-[N] |==|  0.12611
USER: genes 13 Torsion [C]-N--CA-[C] |==|  0.78657
USER: genes 14 Torsion [N]-CA--C-[O] |==|  0.96015
ROOT
ATOM      1  CA  ALA E  11       2.096  20.601   3.243  1.00 85.35 LIG 0.17  C 
ATOM      2  CB  ALA E  11       2.530  19.251   3.817  1.00 80.46 LIG 0.04  C 
ENDROOT
BRANCH 1 3
ATOM      3  N   ALA E  11       2.685  21.688   4.017  1.00 87.15 LIG-0.35  N 
ATOM      4  C   ALA E  10       4.005  21.741   4.212  1.00 62.15 LIG 0.24  C 
ATOM      5 O    ALA E  10       4.791  21.018   3.598  1.00 65.72 LIG-0.27  OA
ATOM      6 H    ALA E  11       2.124  22.265   4.321  1.00 87.15 LIG 0.16  HD
BRANCH 4 7
ATOM      7  CA  ALA E  10       4.527  22.744   5.235  1.00 66.45 LIG 0.17  C 
ATOM      8  CB  ALA E  10       5.624  22.109   6.089  1.00 58.63 LIG 0.04  C 
BRANCH 7 9
ATOM      9  N   ALA E  10       3.465  23.248   6.093  1.00 75.43 LIG-0.35  N 
ATOM     10  C   ALA E   9       2.586  24.165   5.695  1.00 82.21 LIG 0.24  C 
ATOM     11 O    ALA E   9       2.611  24.694   4.578  1.00 73.75 LIG-0.27  OA
ATOM     12 H    ALA E  10       3.459  22.900   6.879  1.00 75.43 LIG 0.16  HD
BRANCH 10 13
ATOM     13  CA  ALA E   9       1.532  24.570   6.717  1.00 87.65 LIG 0.17  C 
ATOM     14  CB  ALA E   9       0.166  23.993   6.354  1.00 72.21 LIG 0.04  C 
BRANCH 13 15
ATOM     15  N   ALA E   9       1.498  26.026   6.773  1.00 84.24 LIG-0.35  N 
ATOM     16 H    ALA E   9       0.721  26.365   6.625  1.00 84.24 LIG 0.16  HD
ATOM     17  C   ALA E   8       2.578  26.750   7.031  1.00 61.40 LIG 0.26  C 
ATOM     18 O    ALA E   8       3.658  26.248   7.334  1.00 66.21 LIG-0.27  OA
BRANCH 17 19
ATOM     19  CA  ALA E   8       2.407  28.265   6.966  1.00 67.03 LIG 0.40  C 
ATOM     20  N   ALA E   8       2.762  28.892   8.275  1.00 60.26 LIG 0.61  N 
ATOM     21  CB  ALA E   8       3.257  28.854   5.847  1.00 64.64 LIG 0.06  C 
ENDBRANCH 17 19
ENDBRANCH 13 15
ENDBRANCH 10 13
ENDBRANCH 7 9
ENDBRANCH 4 7
ENDBRANCH 1 3
BRANCH 1 22
ATOM     22  C   ALA E  11       0.575  20.697   3.213  1.00 81.78 LIG 0.24  C 
ATOM     23  N   ALA E  12       0.036  21.695   2.515  1.00 82.91 LIG-0.35  N 
ATOM     24 H    ALA E  12       0.474  22.220   1.993  1.00 82.91 LIG 0.16  HD
ATOM     25 O    ALA E  11      -0.119  19.880   3.829  1.00 89.30 LIG-0.27  OA
BRANCH 23 26
ATOM     26  CA  ALA E  12      -1.393  21.962   2.602  1.00 61.10 LIG 0.17  C 
ATOM     27  CB  ALA E  12      -1.772  22.445   4.010  1.00 65.27 LIG 0.04  C 
BRANCH 26 28
ATOM     28  C   ALA E  12      -1.809  22.986   1.559  1.00 54.59 LIG 0.24  C 
ATOM     29  N   ALA E  13      -1.165  22.892   0.396  1.00 64.78 LIG-0.35  N 
ATOM     30 H    ALA E  13      -0.603  22.268   0.210  1.00 64.78 LIG 0.16  HD
ATOM     31 O    ALA E  12      -2.703  23.806   1.783  1.00 69.11 LIG-0.27  OA
BRANCH 29 32
ATOM     32  CA  ALA E  13      -1.363  23.855  -0.676  1.00 54.23 LIG 0.17  C 
ATOM     33  CB  ALA E  13      -1.008  25.260  -0.188  1.00 56.27 LIG 0.04  C 
BRANCH 32 34
ATOM     34  C   ALA E  13      -0.515  23.545  -1.896  1.00 65.29 LIG 0.24  C 
ATOM     35  N   ALA E  14      -0.511  22.272  -2.276  1.00 85.74 LIG-0.35  N 
ATOM     36 H    ALA E  14      -0.923  21.649  -1.851  1.00 85.74 LIG 0.16  HD
ATOM     37 O    ALA E  13       0.071  24.438  -2.514  1.00 75.52 LIG-0.27  OA
BRANCH 35 38
ATOM     38  CA  ALA E  14       0.197  21.811  -3.457  1.00 94.46 LIG 0.16  C 
ATOM     39  CB  ALA E  14       0.417  20.317  -3.380  1.00106.12 LIG 0.04  C 
BRANCH 38 40
ATOM     40  C   ALA E  14      -0.582  22.173  -4.716  1.00 99.07 LIG 0.22  C 
ATOM     41 O    ALA E  14      -1.757  22.532  -4.650  1.00120.33 LIG-0.29  OA
ENDBRANCH 38 40
ENDBRANCH 35 38
ENDBRANCH 32 34
ENDBRANCH 29 32
ENDBRANCH 26 28
ENDBRANCH 23 26
ENDBRANCH 1 22
TORSDOF 13
ENDMDL
MODEL 161
USER: ADFR SOLUTION from run 195
USER: SCORE 4.382402 LL:  -2.287 LR:  -3.761 RR:   0.000 FEB:   0.117
USER: RMSD 4.169454
USER: SEED 194
USER: STATUS no improvement in best in 70 clusters for 5 generations
USER: GENES 15
USER: genes 0 Translation |==|  0.55551 0.42211 0.59314
USER: genes 1 Rotation |==|  0.84011 0.58932 0.47450 0.85454
USER: genes 2 Torsion [CB]-CA--N-[C] |==|  0.82771
USER: genes 3 Torsion [N]-C--CA-[N] |==|  0.87008
USER: genes 4 Torsion [C]-CA--N-[C] |==|  0.73556
USER: genes 5 Torsion [N]-C--CA-[N] |==|  0.07222
USER: genes 6 Torsion [C]-CA--N-[C] |==|  0.70310
USER: genes 7 Torsion [N]-C--CA-[N] |==|  0.87220
USER: genes 8 Torsion [N]-CA--C-[N] |==|  0.40011
USER: genes 9 Torsion [C]-N--CA-[CB] |==|  0.17090
USER: genes 10 Torsion [N]-CA--C-[N] |==|  0.60619
USER: genes 11 Torsion [C]-N--CA-[CB] |==|  0.17924
USER: genes 12 Torsion [N]-CA--C-[N] |==|  0.09611
USER: genes 13 Torsion [C]-N--CA-[C] |==|  0.58551
USER: genes 14 Torsion [N]-CA--C-[O] |==|  0.96119
ROOT
ATOM      1  CA  ALA E  11       0.029  22.227   2.870  1.00 85.35 LIG 0.17  C 
ATOM      2  CB  ALA E  11      -0.426  20.985   3.639  1.00 80.46 LIG 0.04  C 
ENDROOT
BRANCH 1 3
ATOM      3  N   ALA E  11       1.163  22.848   3.546  1.00 87.15 LIG-0.35  N 
ATOM      4  C   ALA E  10       1.032  23.325   4.786  1.00 62.15 LIG 0.24  C 
ATOM      5 O    ALA E  10       0.043  23.090   5.482  1.00 65.72 LIG-0.27  OA
ATOM      6 H    ALA E  11       1.890  22.874   3.087  1.00 87.15 LIG 0.16  HD
BRANCH 4 7
ATOM      7  CA  ALA E  10       2.167  24.184   5.333  1.00 66.45 LIG 0.17  C 
ATOM      8  CB  ALA E  10       2.117  25.583   4.719  1.00 58.63 LIG 0.04  C 
BRANCH 7 9
ATOM      9  N   ALA E  10       3.470  23.585   5.089  1.00 75.43 LIG-0.35  N 
ATOM     10  C   ALA E   9       4.101  22.830   5.986  1.00 82.21 LIG 0.24  C 
ATOM     11 O    ALA E   9       3.654  22.597   7.115  1.00 73.75 LIG-0.27  OA
ATOM     12 H    ALA E  10       3.795  23.764   4.313  1.00 75.43 LIG 0.16  HD
BRANCH 10 13
ATOM     13  CA  ALA E   9       5.451  22.271   5.559  1.00 87.65 LIG 0.17  C 
ATOM     14  CB  ALA E   9       6.388  22.128   6.757  1.00 72.21 LIG 0.04  C 
BRANCH 13 15
ATOM     15  N   ALA E   9       6.007  23.165   4.551  1.00 84.24 LIG-0.35  N 
ATOM     16 H    ALA E   9       6.293  23.913   4.864  1.00 84.24 LIG 0.16  HD
ATOM     17  C   ALA E   8       6.061  22.838   3.267  1.00 61.40 LIG 0.26  C 
ATOM     18 O    ALA E   8       5.736  21.728   2.850  1.00 66.21 LIG-0.27  OA
BRANCH 17 19
ATOM     19  CA  ALA E   8       6.586  23.911   2.318  1.00 67.03 LIG 0.40  C 
ATOM     20  N   ALA E   8       5.952  25.231   2.613  1.00 60.26 LIG 0.61  N 
ATOM     21  CB  ALA E   8       8.104  24.017   2.413  1.00 64.64 LIG 0.06  C 
ENDBRANCH 17 19
ENDBRANCH 13 15
ENDBRANCH 10 13
ENDBRANCH 7 9
ENDBRANCH 4 7
ENDBRANCH 1 3
BRANCH 1 22
ATOM     22  C   ALA E  11      -1.130  23.204   2.713  1.00 81.78 LIG 0.24  C 
ATOM     23  N   ALA E  12      -1.856  23.122   1.599  1.00 82.91 LIG-0.35  N 
ATOM     24 H    ALA E  12      -1.790  22.492   1.017  1.00 82.91 LIG 0.16  HD
ATOM     25 O    ALA E  11      -1.368  24.045   3.588  1.00 89.30 LIG-0.27  OA
BRANCH 23 26
ATOM     26  CA  ALA E  12      -2.848  24.143   1.294  1.00 61.10 LIG 0.17  C 
ATOM     27  CB  ALA E  12      -2.184  25.520   1.139  1.00 65.27 LIG 0.04  C 
BRANCH 26 28
ATOM     28  C   ALA E  12      -3.618  23.780   0.034  1.00 54.59 LIG 0.24  C 
ATOM     29  N   ALA E  13      -3.907  24.810  -0.760  1.00 64.78 LIG-0.35  N 
ATOM     30 H    ALA E  13      -3.633  25.613  -0.621  1.00 64.78 LIG 0.16  HD
ATOM     31 O    ALA E  12      -3.906  22.609  -0.228  1.00 69.11 LIG-0.27  OA
BRANCH 29 32
ATOM     32  CA  ALA E  13      -4.727  24.659  -1.952  1.00 54.23 LIG 0.17  C 
ATOM     33  CB  ALA E  13      -6.145  24.242  -1.561  1.00 56.27 LIG 0.04  C 
BRANCH 32 34
ATOM     34  C   ALA E  13      -4.811  25.940  -2.763  1.00 65.29 LIG 0.24  C 
ATOM     35  N   ALA E  14      -3.712  26.685  -2.762  1.00 85.74 LIG-0.35  N 
ATOM     36 H    ALA E  14      -3.007  26.490  -2.310  1.00 85.74 LIG 0.16  HD
ATOM     37 O    ALA E  13      -5.818  26.218  -3.419  1.00 75.52 LIG-0.27  OA
BRANCH 35 38
ATOM     38  CA  ALA E  14      -3.598  27.910  -3.532  1.00 94.46 LIG 0.16  C 
ATOM     39  CB  ALA E  14      -4.094  29.084  -2.719  1.00106.12 LIG 0.04  C 
BRANCH 38 40
ATOM     40  C   ALA E  14      -2.152  28.132  -3.964  1.00 99.07 LIG 0.22  C 
ATOM     41 O    ALA E  14      -1.236  27.486  -3.455  1.00120.33 LIG-0.29  OA
ENDBRANCH 38 40
ENDBRANCH 35 38
ENDBRANCH 32 34
ENDBRANCH 29 32
ENDBRANCH 26 28
ENDBRANCH 23 26
ENDBRANCH 1 22
TORSDOF 13
ENDMDL
MODEL 162
USER: ADFR SOLUTION from run 179
USER: SCORE 4.828099 LL:  -2.583 LR:  -3.765 RR:   0.000 FEB:   0.113
USER: RMSD 5.357520
USER: SEED 178
USER: STATUS no improvement in best in 84 clusters for 5 generations
USER: GENES 15
USER: genes 0 Translation |==|  0.63872 0.34864 0.56824
USER: genes 1 Rotation |==|  0.64394 0.53722 0.44790 0.97453
USER: genes 2 Torsion [CB]-CA--N-[C] |==|  0.15070
USER: genes 3 Torsion [N]-C--CA-[N] |==|  0.28570
USER: genes 4 Torsion [C]-CA--N-[C] |==|  0.83817
USER: genes 5 Torsion [N]-C--CA-[N] |==|  0.95209
USER: genes 6 Torsion [C]-CA--N-[C] |==|  0.81062
USER: genes 7 Torsion [N]-C--CA-[N] |==|  0.78398
USER: genes 8 Torsion [N]-CA--C-[N] |==|  0.62475
USER: genes 9 Torsion [C]-N--CA-[CB] |==|  0.18333
USER: genes 10 Torsion [N]-CA--C-[N] |==|  0.08665
USER: genes 11 Torsion [C]-N--CA-[CB] |==|  0.84976
USER: genes 12 Torsion [N]-CA--C-[N] |==|  0.39120
USER: genes 13 Torsion [C]-N--CA-[C] |==|  0.76797
USER: genes 14 Torsion [N]-CA--C-[O] |==|  0.97831
ROOT
ATOM      1  CA  ALA E  11       1.901  20.905   2.422  1.00 85.35 LIG 0.17  C 
ATOM      2  CB  ALA E  11       1.259  20.803   3.807  1.00 80.46 LIG 0.04  C 
ENDROOT
BRANCH 1 3
ATOM      3  N   ALA E  11       3.032  21.825   2.460  1.00 87.15 LIG-0.35  N 
ATOM      4  C   ALA E  10       4.017  21.649   3.345  1.00 62.15 LIG 0.24  C 
ATOM      5 O    ALA E  10       4.126  20.620   4.014  1.00 65.72 LIG-0.27  OA
ATOM      6 H    ALA E  11       3.003  22.461   1.883  1.00 87.15 LIG 0.16  HD
BRANCH 4 7
ATOM      7  CA  ALA E  10       5.028  22.778   3.507  1.00 66.45 LIG 0.17  C 
ATOM      8  CB  ALA E  10       6.450  22.219   3.530  1.00 58.63 LIG 0.04  C 
BRANCH 7 9
ATOM      9  N   ALA E  10       4.786  23.557   4.712  1.00 75.43 LIG-0.35  N 
ATOM     10  C   ALA E   9       3.636  24.183   4.952  1.00 82.21 LIG 0.24  C 
ATOM     11 O    ALA E   9       2.686  24.189   4.162  1.00 73.75 LIG-0.27  OA
ATOM     12 H    ALA E  10       5.455  23.575   5.254  1.00 75.43 LIG 0.16  HD
BRANCH 10 13
ATOM     13  CA  ALA E   9       3.550  24.941   6.270  1.00 87.65 LIG 0.17  C 
ATOM     14  CB  ALA E   9       3.656  26.448   6.044  1.00 72.21 LIG 0.04  C 
BRANCH 13 15
ATOM     15  N   ALA E   9       4.616  24.456   7.137  1.00 84.24 LIG-0.35  N 
ATOM     16 H    ALA E   9       5.234  25.034   7.291  1.00 84.24 LIG 0.16  HD
ATOM     17  C   ALA E   8       4.618  23.228   7.637  1.00 61.40 LIG 0.26  C 
ATOM     18 O    ALA E   8       3.682  22.447   7.485  1.00 66.21 LIG-0.27  OA
BRANCH 17 19
ATOM     19  CA  ALA E   8       5.845  22.833   8.453  1.00 67.03 LIG 0.40  C 
ATOM     20  N   ALA E   8       6.992  22.504   7.555  1.00 60.26 LIG 0.61  N 
ATOM     21  CB  ALA E   8       6.230  23.948   9.419  1.00 64.64 LIG 0.06  C 
ENDBRANCH 17 19
ENDBRANCH 13 15
ENDBRANCH 10 13
ENDBRANCH 7 9
ENDBRANCH 4 7
ENDBRANCH 1 3
BRANCH 1 22
ATOM     22  C   ALA E  11       0.865  21.335   1.391  1.00 81.78 LIG 0.24  C 
ATOM     23  N   ALA E  12      -0.415  21.303   1.756  1.00 82.91 LIG-0.35  N 
ATOM     24 H    ALA E  12      -0.693  21.165   2.558  1.00 82.91 LIG 0.16  HD
ATOM     25 O    ALA E  11       1.214  21.687   0.258  1.00 89.30 LIG-0.27  OA
BRANCH 23 26
ATOM     26  CA  ALA E  12      -1.464  21.512   0.767  1.00 61.10 LIG 0.17  C 
ATOM     27  CB  ALA E  12      -1.487  20.364  -0.254  1.00 65.27 LIG 0.04  C 
BRANCH 26 28
ATOM     28  C   ALA E  12      -2.818  21.645   1.446  1.00 54.59 LIG 0.24  C 
ATOM     29  N   ALA E  13      -2.782  22.190   2.662  1.00 64.78 LIG-0.35  N 
ATOM     30 H    ALA E  13      -2.068  22.506   3.023  1.00 64.78 LIG 0.16  HD
ATOM     31 O    ALA E  12      -3.859  21.304   0.878  1.00 69.11 LIG-0.27  OA
BRANCH 29 32
ATOM     32  CA  ALA E  13      -3.969  22.297   3.495  1.00 54.23 LIG 0.17  C 
ATOM     33  CB  ALA E  13      -5.082  23.012   2.729  1.00 56.27 LIG 0.04  C 
BRANCH 32 34
ATOM     34  C   ALA E  13      -4.489  20.942   3.939  1.00 65.29 LIG 0.24  C 
ATOM     35  N   ALA E  14      -4.936  20.887   5.188  1.00 85.74 LIG-0.35  N 
ATOM     36 H    ALA E  14      -4.906  21.552   5.732  1.00 85.74 LIG 0.16  HD
ATOM     37 O    ALA E  13      -4.541  19.988   3.159  1.00 75.52 LIG-0.27  OA
BRANCH 35 38
ATOM     38  CA  ALA E  14      -5.524  19.688   5.757  1.00 94.46 LIG 0.16  C 
ATOM     39  CB  ALA E  14      -5.356  19.688   7.259  1.00106.12 LIG 0.04  C 
BRANCH 38 40
ATOM     40  C   ALA E  14      -6.999  19.592   5.383  1.00 99.07 LIG 0.22  C 
ATOM     41 O    ALA E  14      -7.567  20.524   4.815  1.00120.33 LIG-0.29  OA
ENDBRANCH 38 40
ENDBRANCH 35 38
ENDBRANCH 32 34
ENDBRANCH 29 32
ENDBRANCH 26 28
ENDBRANCH 23 26
ENDBRANCH 1 22
TORSDOF 13
ENDMDL
MODEL 163
USER: ADFR SOLUTION from run 70
USER: SCORE 3.842808 LL:  -2.723 LR:  -3.747 RR:   0.000 FEB:   0.131
USER: RMSD 4.963407
USER: SEED 69
USER: STATUS no improvement in best in 94 clusters for 5 generations
USER: GENES 15
USER: genes 0 Translation |==|  0.62385 0.41333 0.61946
USER: genes 1 Rotation |==|  0.54079 0.43708 0.36093 0.97438
USER: genes 2 Torsion [CB]-CA--N-[C] |==|  0.32841
USER: genes 3 Torsion [N]-C--CA-[N] |==|  0.13759
USER: genes 4 Torsion [C]-CA--N-[C] |==|  0.13792
USER: genes 5 Torsion [N]-C--CA-[N] |==|  0.29375
USER: genes 6 Torsion [C]-CA--N-[C] |==|  0.70987
USER: genes 7 Torsion [N]-C--CA-[N] |==|  0.40055
USER: genes 8 Torsion [N]-CA--C-[N] |==|  0.96655
USER: genes 9 Torsion [C]-N--CA-[CB] |==|  0.84570
USER: genes 10 Torsion [N]-CA--C-[N] |==|  0.36157
USER: genes 11 Torsion [C]-N--CA-[CB] |==|  0.17928
USER: genes 12 Torsion [N]-CA--C-[N] |==|  0.09652
USER: genes 13 Torsion [C]-N--CA-[C] |==|  0.77506
USER: genes 14 Torsion [N]-CA--C-[O] |==|  0.97084
ROOT
ATOM      1  CA  ALA E  11       1.567  22.069   3.344  1.00 85.35 LIG 0.17  C 
ATOM      2  CB  ALA E  11       0.775  22.871   4.379  1.00 80.46 LIG 0.04  C 
ENDROOT
BRANCH 1 3
ATOM      3  N   ALA E  11       2.974  22.450   3.384  1.00 87.15 LIG-0.35  N 
ATOM      4  C   ALA E  10       3.909  21.549   3.698  1.00 62.15 LIG 0.24  C 
ATOM      5 O    ALA E  10       3.667  20.344   3.764  1.00 65.72 LIG-0.27  OA
ATOM      6 H    ALA E  11       3.134  23.274   3.195  1.00 87.15 LIG 0.16  HD
BRANCH 4 7
ATOM      7  CA  ALA E  10       5.318  22.064   3.974  1.00 66.45 LIG 0.17  C 
ATOM      8  CB  ALA E  10       6.201  20.935   4.502  1.00 58.63 LIG 0.04  C 
BRANCH 7 9
ATOM      9  N   ALA E  10       5.317  23.172   4.918  1.00 75.43 LIG-0.35  N 
ATOM     10  C   ALA E   9       4.671  23.133   6.081  1.00 82.21 LIG 0.24  C 
ATOM     11 O    ALA E   9       3.988  22.170   6.450  1.00 73.75 LIG-0.27  OA
ATOM     12 H    ALA E  10       5.772  23.852   4.654  1.00 75.43 LIG 0.16  HD
BRANCH 10 13
ATOM     13  CA  ALA E   9       4.788  24.375   6.954  1.00 87.65 LIG 0.17  C 
ATOM     14  CB  ALA E   9       5.144  24.004   8.392  1.00 72.21 LIG 0.04  C 
BRANCH 13 15
ATOM     15  N   ALA E   9       3.521  25.091   6.886  1.00 84.24 LIG-0.35  N 
ATOM     16 H    ALA E   9       2.889  24.732   7.346  1.00 84.24 LIG 0.16  HD
ATOM     17  C   ALA E   8       3.370  26.199   6.173  1.00 61.40 LIG 0.26  C 
ATOM     18 O    ALA E   8       4.306  26.751   5.598  1.00 66.21 LIG-0.27  OA
BRANCH 17 19
ATOM     19  CA  ALA E   8       1.963  26.786   6.125  1.00 67.03 LIG 0.40  C 
ATOM     20  N   ALA E   8       2.014  28.279   6.109  1.00 60.26 LIG 0.61  N 
ATOM     21  CB  ALA E   8       1.206  26.268   4.907  1.00 64.64 LIG 0.06  C 
ENDBRANCH 17 19
ENDBRANCH 13 15
ENDBRANCH 10 13
ENDBRANCH 7 9
ENDBRANCH 4 7
ENDBRANCH 1 3
BRANCH 1 22
ATOM     22  C   ALA E  11       0.973  22.269   1.955  1.00 81.78 LIG 0.24  C 
ATOM     23  N   ALA E  12       1.691  22.964   1.074  1.00 82.91 LIG-0.35  N 
ATOM     24 H    ALA E  12       2.506  23.212   1.194  1.00 82.91 LIG 0.16  HD
ATOM     25 O    ALA E  11      -0.140  21.808   1.674  1.00 89.30 LIG-0.27  OA
BRANCH 23 26
ATOM     26  CA  ALA E  12       1.105  23.358  -0.200  1.00 61.10 LIG 0.17  C 
ATOM     27  CB  ALA E  12       0.569  22.133  -0.956  1.00 65.27 LIG 0.04  C 
BRANCH 26 28
ATOM     28  C   ALA E  12      -0.003  24.377   0.016  1.00 54.59 LIG 0.24  C 
ATOM     29  N   ALA E  13       0.084  25.467  -0.747  1.00 64.78 LIG-0.35  N 
ATOM     30 H    ALA E  13       0.676  25.573  -1.362  1.00 64.78 LIG 0.16  HD
ATOM     31 O    ALA E  12      -0.922  24.169   0.812  1.00 69.11 LIG-0.27  OA
BRANCH 29 32
ATOM     32  CA  ALA E  13      -0.831  26.587  -0.599  1.00 54.23 LIG 0.17  C 
ATOM     33  CB  ALA E  13      -0.648  27.232   0.776  1.00 56.27 LIG 0.04  C 
BRANCH 32 34
ATOM     34  C   ALA E  13      -0.617  27.653  -1.658  1.00 65.29 LIG 0.24  C 
ATOM     35  N   ALA E  14      -0.260  27.200  -2.855  1.00 85.74 LIG-0.35  N 
ATOM     36 H    ALA E  14      -0.119  26.369  -3.024  1.00 85.74 LIG 0.16  HD
ATOM     37 O    ALA E  13      -0.828  28.845  -1.421  1.00 75.52 LIG-0.27  OA
BRANCH 35 38
ATOM     38  CA  ALA E  14      -0.073  28.074  -3.998  1.00 94.46 LIG 0.16  C 
ATOM     39  CB  ALA E  14       0.843  27.422  -5.008  1.00106.12 LIG 0.04  C 
BRANCH 38 40
ATOM     40  C   ALA E  14      -1.418  28.409  -4.634  1.00 99.07 LIG 0.22  C 
ATOM     41 O    ALA E  14      -2.440  27.811  -4.299  1.00120.33 LIG-0.29  OA
ENDBRANCH 38 40
ENDBRANCH 35 38
ENDBRANCH 32 34
ENDBRANCH 29 32
ENDBRANCH 26 28
ENDBRANCH 23 26
ENDBRANCH 1 22
TORSDOF 13
ENDMDL
MODEL 164
USER: ADFR SOLUTION from run 195
USER: SCORE 4.879149 LL:  -2.286 LR:  -3.744 RR:   0.000 FEB:   0.134
USER: RMSD 3.885696
USER: SEED 194
USER: STATUS no improvement in best in 70 clusters for 5 generations
USER: GENES 15
USER: genes 0 Translation |==|  0.55551 0.42211 0.59314
USER: genes 1 Rotation |==|  0.84010 0.58930 0.47447 0.85455
USER: genes 2 Torsion [CB]-CA--N-[C] |==|  0.82770
USER: genes 3 Torsion [N]-C--CA-[N] |==|  0.87006
USER: genes 4 Torsion [C]-CA--N-[C] |==|  0.73555
USER: genes 5 Torsion [N]-C--CA-[N] |==|  0.07221
USER: genes 6 Torsion [C]-CA--N-[C] |==|  0.70310
USER: genes 7 Torsion [N]-C--CA-[N] |==|  0.87220
USER: genes 8 Torsion [N]-CA--C-[N] |==|  0.40013
USER: genes 9 Torsion [C]-N--CA-[CB] |==|  0.17091
USER: genes 10 Torsion [N]-CA--C-[N] |==|  0.10931
USER: genes 11 Torsion [C]-N--CA-[CB] |==|  0.51874
USER: genes 12 Torsion [N]-CA--C-[N] |==|  0.43398
USER: genes 13 Torsion [C]-N--CA-[C] |==|  0.79012
USER: genes 14 Torsion [N]-CA--C-[O] |==|  0.96133
ROOT
ATOM      1  CA  ALA E  11       0.029  22.227   2.870  1.00 85.35 LIG 0.17  C 
ATOM      2  CB  ALA E  11      -0.427  20.985   3.640  1.00 80.46 LIG 0.04  C 
ENDROOT
BRANCH 1 3
ATOM      3  N   ALA E  11       1.163  22.847   3.546  1.00 87.15 LIG-0.35  N 
ATOM      4  C   ALA E  10       1.033  23.325   4.786  1.00 62.15 LIG 0.24  C 
ATOM      5 O    ALA E  10       0.044  23.090   5.482  1.00 65.72 LIG-0.27  OA
ATOM      6 H    ALA E  11       1.890  22.873   3.087  1.00 87.15 LIG 0.16  HD
BRANCH 4 7
ATOM      7  CA  ALA E  10       2.167  24.184   5.333  1.00 66.45 LIG 0.17  C 
ATOM      8  CB  ALA E  10       2.118  25.582   4.718  1.00 58.63 LIG 0.04  C 
BRANCH 7 9
ATOM      9  N   ALA E  10       3.470  23.585   5.089  1.00 75.43 LIG-0.35  N 
ATOM     10  C   ALA E   9       4.100  22.830   5.986  1.00 82.21 LIG 0.24  C 
ATOM     11 O    ALA E   9       3.654  22.597   7.116  1.00 73.75 LIG-0.27  OA
ATOM     12 H    ALA E  10       3.795  23.764   4.313  1.00 75.43 LIG 0.16  HD
BRANCH 10 13
ATOM     13  CA  ALA E   9       5.451  22.270   5.560  1.00 87.65 LIG 0.17  C 
ATOM     14  CB  ALA E   9       6.388  22.128   6.757  1.00 72.21 LIG 0.04  C 
BRANCH 13 15
ATOM     15  N   ALA E   9       6.007  23.163   4.551  1.00 84.24 LIG-0.35  N 
ATOM     16 H    ALA E   9       6.293  23.912   4.864  1.00 84.24 LIG 0.16  HD
ATOM     17  C   ALA E   8       6.062  22.836   3.268  1.00 61.40 LIG 0.26  C 
ATOM     18 O    ALA E   8       5.736  21.726   2.851  1.00 66.21 LIG-0.27  OA
BRANCH 17 19
ATOM     19  CA  ALA E   8       6.586  23.909   2.318  1.00 67.03 LIG 0.40  C 
ATOM     20  N   ALA E   8       5.953  25.229   2.612  1.00 60.26 LIG 0.61  N 
ATOM     21  CB  ALA E   8       8.104  24.015   2.413  1.00 64.64 LIG 0.06  C 
ENDBRANCH 17 19
ENDBRANCH 13 15
ENDBRANCH 10 13
ENDBRANCH 7 9
ENDBRANCH 4 7
ENDBRANCH 1 3
BRANCH 1 22
ATOM     22  C   ALA E  11      -1.130  23.204   2.712  1.00 81.78 LIG 0.24  C 
ATOM     23  N   ALA E  12      -1.856  23.122   1.599  1.00 82.91 LIG-0.35  N 
ATOM     24 H    ALA E  12      -1.790  22.491   1.017  1.00 82.91 LIG 0.16  HD
ATOM     25 O    ALA E  11      -1.368  24.045   3.588  1.00 89.30 LIG-0.27  OA
BRANCH 23 26
ATOM     26  CA  ALA E  12      -2.848  24.143   1.294  1.00 61.10 LIG 0.17  C 
ATOM     27  CB  ALA E  12      -2.183  25.519   1.138  1.00 65.27 LIG 0.04  C 
BRANCH 26 28
ATOM     28  C   ALA E  12      -3.618  23.779   0.034  1.00 54.59 LIG 0.24  C 
ATOM     29  N   ALA E  13      -3.915  22.485  -0.085  1.00 64.78 LIG-0.35  N 
ATOM     30 H    ALA E  13      -3.749  21.899   0.523  1.00 64.78 LIG 0.16  HD
ATOM     31 O    ALA E  12      -3.963  24.640  -0.780  1.00 69.11 LIG-0.27  OA
BRANCH 29 32
ATOM     32  CA  ALA E  13      -4.555  21.947  -1.274  1.00 54.23 LIG 0.17  C 
ATOM     33  CB  ALA E  13      -4.918  20.478  -1.052  1.00 56.27 LIG 0.04  C 
BRANCH 32 34
ATOM     34  C   ALA E  13      -5.820  22.701  -1.642  1.00 65.29 LIG 0.24  C 
ATOM     35  N   ALA E  14      -6.178  22.618  -2.919  1.00 85.74 LIG-0.35  N 
ATOM     36 H    ALA E  14      -5.718  22.203  -3.514  1.00 85.74 LIG 0.16  HD
ATOM     37 O    ALA E  13      -6.487  23.291  -0.789  1.00 75.52 LIG-0.27  OA
BRANCH 35 38
ATOM     38  CA  ALA E  14      -7.392  23.227  -3.431  1.00 94.46 LIG 0.16  C 
ATOM     39  CB  ALA E  14      -7.318  23.350  -4.936  1.00106.12 LIG 0.04  C 
BRANCH 38 40
ATOM     40  C   ALA E  14      -8.610  22.408  -3.020  1.00 99.07 LIG 0.22  C 
ATOM     41 O    ALA E  14      -8.482  21.268  -2.574  1.00120.33 LIG-0.29  OA
ENDBRANCH 38 40
ENDBRANCH 35 38
ENDBRANCH 32 34
ENDBRANCH 29 32
ENDBRANCH 26 28
ENDBRANCH 23 26
ENDBRANCH 1 22
TORSDOF 13
ENDMDL
MODEL 165
USER: ADFR SOLUTION from run 195
USER: SCORE 4.939178 LL:  -2.343 LR:  -3.737 RR:   0.000 FEB:   0.141
USER: RMSD 4.653957
USER: SEED 194
USER: STATUS no improvement in best in 70 clusters for 5 generations
USER: GENES 15
USER: genes 0 Translation |==|  0.55551 0.42211 0.59314
USER: genes 1 Rotation |==|  0.84011 0.58930 0.47448 0.85454
USER: genes 2 Torsion [CB]-CA--N-[C] |==|  0.82771
USER: genes 3 Torsion [N]-C--CA-[N] |==|  0.87007
USER: genes 4 Torsion [C]-CA--N-[C] |==|  0.73556
USER: genes 5 Torsion [N]-C--CA-[N] |==|  0.07222
USER: genes 6 Torsion [C]-CA--N-[C] |==|  0.70310
USER: genes 7 Torsion [N]-C--CA-[N] |==|  0.87220
USER: genes 8 Torsion [N]-CA--C-[N] |==|  0.40012
USER: genes 9 Torsion [C]-N--CA-[CB] |==|  0.17091
USER: genes 10 Torsion [N]-CA--C-[N] |==|  0.10932
USER: genes 11 Torsion [C]-N--CA-[CB] |==|  0.17480
USER: genes 12 Torsion [N]-CA--C-[N] |==|  0.09826
USER: genes 13 Torsion [C]-N--CA-[C] |==|  0.65453
USER: genes 14 Torsion [N]-CA--C-[O] |==|  0.98047
ROOT
ATOM      1  CA  ALA E  11       0.029  22.227   2.870  1.00 85.35 LIG 0.17  C 
ATOM      2  CB  ALA E  11      -0.427  20.985   3.639  1.00 80.46 LIG 0.04  C 
ENDROOT
BRANCH 1 3
ATOM      3  N   ALA E  11       1.163  22.848   3.546  1.00 87.15 LIG-0.35  N 
ATOM      4  C   ALA E  10       1.033  23.325   4.786  1.00 62.15 LIG 0.24  C 
ATOM      5 O    ALA E  10       0.043  23.090   5.482  1.00 65.72 LIG-0.27  OA
ATOM      6 H    ALA E  11       1.890  22.874   3.087  1.00 87.15 LIG 0.16  HD
BRANCH 4 7
ATOM      7  CA  ALA E  10       2.167  24.184   5.333  1.00 66.45 LIG 0.17  C 
ATOM      8  CB  ALA E  10       2.118  25.582   4.719  1.00 58.63 LIG 0.04  C 
BRANCH 7 9
ATOM      9  N   ALA E  10       3.470  23.585   5.089  1.00 75.43 LIG-0.35  N 
ATOM     10  C   ALA E   9       4.101  22.830   5.986  1.00 82.21 LIG 0.24  C 
ATOM     11 O    ALA E   9       3.654  22.597   7.115  1.00 73.75 LIG-0.27  OA
ATOM     12 H    ALA E  10       3.795  23.764   4.313  1.00 75.43 LIG 0.16  HD
BRANCH 10 13
ATOM     13  CA  ALA E   9       5.451  22.271   5.560  1.00 87.65 LIG 0.17  C 
ATOM     14  CB  ALA E   9       6.388  22.127   6.757  1.00 72.21 LIG 0.04  C 
BRANCH 13 15
ATOM     15  N   ALA E   9       6.007  23.164   4.551  1.00 84.24 LIG-0.35  N 
ATOM     16 H    ALA E   9       6.293  23.913   4.864  1.00 84.24 LIG 0.16  HD
ATOM     17  C   ALA E   8       6.061  22.837   3.268  1.00 61.40 LIG 0.26  C 
ATOM     18 O    ALA E   8       5.736  21.727   2.851  1.00 66.21 LIG-0.27  OA
BRANCH 17 19
ATOM     19  CA  ALA E   8       6.586  23.909   2.318  1.00 67.03 LIG 0.40  C 
ATOM     20  N   ALA E   8       5.953  25.230   2.613  1.00 60.26 LIG 0.61  N 
ATOM     21  CB  ALA E   8       8.104  24.016   2.413  1.00 64.64 LIG 0.06  C 
ENDBRANCH 17 19
ENDBRANCH 13 15
ENDBRANCH 10 13
ENDBRANCH 7 9
ENDBRANCH 4 7
ENDBRANCH 1 3
BRANCH 1 22
ATOM     22  C   ALA E  11      -1.130  23.204   2.713  1.00 81.78 LIG 0.24  C 
ATOM     23  N   ALA E  12      -1.856  23.122   1.599  1.00 82.91 LIG-0.35  N 
ATOM     24 H    ALA E  12      -1.790  22.492   1.017  1.00 82.91 LIG 0.16  HD
ATOM     25 O    ALA E  11      -1.368  24.045   3.588  1.00 89.30 LIG-0.27  OA
BRANCH 23 26
ATOM     26  CA  ALA E  12      -2.848  24.144   1.294  1.00 61.10 LIG 0.17  C 
ATOM     27  CB  ALA E  12      -2.183  25.520   1.139  1.00 65.27 LIG 0.04  C 
BRANCH 26 28
ATOM     28  C   ALA E  12      -3.618  23.780   0.034  1.00 54.59 LIG 0.24  C 
ATOM     29  N   ALA E  13      -3.914  22.486  -0.085  1.00 64.78 LIG-0.35  N 
ATOM     30 H    ALA E  13      -3.749  21.900   0.522  1.00 64.78 LIG 0.16  HD
ATOM     31 O    ALA E  12      -3.963  24.641  -0.780  1.00 69.11 LIG-0.27  OA
BRANCH 29 32
ATOM     32  CA  ALA E  13      -4.554  21.948  -1.275  1.00 54.23 LIG 0.17  C 
ATOM     33  CB  ALA E  13      -3.644  22.137  -2.488  1.00 56.27 LIG 0.04  C 
BRANCH 32 34
ATOM     34  C   ALA E  13      -4.873  20.469  -1.142  1.00 65.29 LIG 0.24  C 
ATOM     35  N   ALA E  14      -5.234  20.074   0.073  1.00 85.74 LIG-0.35  N 
ATOM     36 H    ALA E  14      -5.254  20.596   0.755  1.00 85.74 LIG 0.16  HD
ATOM     37 O    ALA E  13      -4.852  19.718  -2.120  1.00 75.52 LIG-0.27  OA
BRANCH 35 38
ATOM     38  CA  ALA E  14      -5.631  18.708   0.365  1.00 94.46 LIG 0.16  C 
ATOM     39  CB  ALA E  14      -4.617  18.055   1.277  1.00106.12 LIG 0.04  C 
BRANCH 38 40
ATOM     40  C   ALA E  14      -7.017  18.684   1.001  1.00 99.07 LIG 0.22  C 
ATOM     41 O    ALA E  14      -7.583  19.729   1.318  1.00120.33 LIG-0.29  OA
ENDBRANCH 38 40
ENDBRANCH 35 38
ENDBRANCH 32 34
ENDBRANCH 29 32
ENDBRANCH 26 28
ENDBRANCH 23 26
ENDBRANCH 1 22
TORSDOF 13
ENDMDL
MODEL 166
USER: ADFR SOLUTION from run 58
USER: SCORE 3.771080 LL:  -2.887 LR:  -3.741 RR:   0.000 FEB:   0.137
USER: RMSD 4.777890
USER: SEED 57
USER: STATUS no improvement in best in 62 clusters for 5 generations
USER: GENES 15
USER: genes 0 Translation |==|  0.52750 0.44903 0.70216
USER: genes 1 Rotation |==|  0.44789 0.33998 0.48931 0.97070
USER: genes 2 Torsion [CB]-CA--N-[C] |==|  0.49952
USER: genes 3 Torsion [N]-C--CA-[N] |==|  0.45619
USER: genes 4 Torsion [C]-CA--N-[C] |==|  0.80555
USER: genes 5 Torsion [N]-C--CA-[N] |==|  0.02570
USER: genes 6 Torsion [C]-CA--N-[C] |==|  0.75267
USER: genes 7 Torsion [N]-C--CA-[N] |==|  0.54537
USER: genes 8 Torsion [N]-CA--C-[N] |==|  0.89030
USER: genes 9 Torsion [C]-N--CA-[CB] |==|  0.84360
USER: genes 10 Torsion [N]-CA--C-[N] |==|  0.09233
USER: genes 11 Torsion [C]-N--CA-[CB] |==|  0.84418
USER: genes 12 Torsion [N]-CA--C-[N] |==|  0.39980
USER: genes 13 Torsion [C]-N--CA-[C] |==|  0.76841
USER: genes 14 Torsion [N]-CA--C-[O] |==|  0.97543
ROOT
ATOM      1  CA  ALA E  11      -0.601  22.712   4.833  1.00 85.35 LIG 0.17  C 
ATOM      2  CB  ALA E  11      -1.935  23.415   5.091  1.00 80.46 LIG 0.04  C 
ENDROOT
BRANCH 1 3
ATOM      3  N   ALA E  11       0.495  23.670   4.911  1.00 87.15 LIG-0.35  N 
ATOM      4  C   ALA E  10       1.756  23.272   4.722  1.00 62.15 LIG 0.24  C 
ATOM      5 O    ALA E  10       2.035  22.157   4.280  1.00 65.72 LIG-0.27  OA
ATOM      6 H    ALA E  11       0.260  24.479   5.084  1.00 87.15 LIG 0.16  HD
BRANCH 4 7
ATOM      7  CA  ALA E  10       2.866  24.258   5.070  1.00 66.45 LIG 0.17  C 
ATOM      8  CB  ALA E  10       2.932  25.373   4.027  1.00 58.63 LIG 0.04  C 
BRANCH 7 9
ATOM      9  N   ALA E  10       4.162  23.604   5.173  1.00 75.43 LIG-0.35  N 
ATOM     10  C   ALA E   9       4.477  22.771   6.163  1.00 82.21 LIG 0.24  C 
ATOM     11 O    ALA E   9       3.714  22.505   7.098  1.00 73.75 LIG-0.27  OA
ATOM     12 H    ALA E  10       4.704  23.805   4.537  1.00 75.43 LIG 0.16  HD
BRANCH 10 13
ATOM     13  CA  ALA E   9       5.872  22.165   6.109  1.00 87.65 LIG 0.17  C 
ATOM     14  CB  ALA E   9       6.577  22.289   7.458  1.00 72.21 LIG 0.04  C 
BRANCH 13 15
ATOM     15  N   ALA E   9       6.615  22.843   5.055  1.00 84.24 LIG-0.35  N 
ATOM     16 H    ALA E   9       7.056  23.532   5.323  1.00 84.24 LIG 0.16  HD
ATOM     17  C   ALA E   8       6.603  22.425   3.797  1.00 61.40 LIG 0.26  C 
ATOM     18 O    ALA E   8       6.044  21.387   3.448  1.00 66.21 LIG-0.27  OA
BRANCH 17 19
ATOM     19  CA  ALA E   8       7.354  23.290   2.789  1.00 67.03 LIG 0.40  C 
ATOM     20  N   ALA E   8       6.945  22.948   1.394  1.00 60.26 LIG 0.61  N 
ATOM     21  CB  ALA E   8       7.113  24.770   3.065  1.00 64.64 LIG 0.06  C 
ENDBRANCH 17 19
ENDBRANCH 13 15
ENDBRANCH 10 13
ENDBRANCH 7 9
ENDBRANCH 4 7
ENDBRANCH 1 3
BRANCH 1 22
ATOM     22  C   ALA E  11      -0.630  22.005   3.483  1.00 81.78 LIG 0.24  C 
ATOM     23  N   ALA E  12      -0.362  22.735   2.402  1.00 82.91 LIG-0.35  N 
ATOM     24 H    ALA E  12      -0.067  23.543   2.417  1.00 82.91 LIG 0.16  HD
ATOM     25 O    ALA E  11      -0.906  20.802   3.408  1.00 89.30 LIG-0.27  OA
BRANCH 23 26
ATOM     26  CA  ALA E  12      -0.562  22.175   1.072  1.00 61.10 LIG 0.17  C 
ATOM     27  CB  ALA E  12       0.237  20.874   0.902  1.00 65.27 LIG 0.04  C 
BRANCH 26 28
ATOM     28  C   ALA E  12      -2.040  21.929   0.814  1.00 54.59 LIG 0.24  C 
ATOM     29  N   ALA E  13      -2.861  22.805   1.393  1.00 64.78 LIG-0.35  N 
ATOM     30 H    ALA E  13      -2.593  23.497   1.827  1.00 64.78 LIG 0.16  HD
ATOM     31 O    ALA E  12      -2.422  21.006   0.089  1.00 69.11 LIG-0.27  OA
BRANCH 29 32
ATOM     32  CA  ALA E  13      -4.307  22.660   1.337  1.00 54.23 LIG 0.17  C 
ATOM     33  CB  ALA E  13      -4.768  22.577  -0.118  1.00 56.27 LIG 0.04  C 
BRANCH 32 34
ATOM     34  C   ALA E  13      -4.793  21.418   2.063  1.00 65.29 LIG 0.24  C 
ATOM     35  N   ALA E  14      -5.951  21.550   2.700  1.00 85.74 LIG-0.35  N 
ATOM     36 H    ALA E  14      -6.388  22.289   2.741  1.00 85.74 LIG 0.16  HD
ATOM     37 O    ALA E  13      -4.172  20.354   2.001  1.00 75.52 LIG-0.27  OA
BRANCH 35 38
ATOM     38  CA  ALA E  14      -6.591  20.448   3.395  1.00 94.46 LIG 0.16  C 
ATOM     39  CB  ALA E  14      -7.482  20.974   4.496  1.00106.12 LIG 0.04  C 
BRANCH 38 40
ATOM     40  C   ALA E  14      -7.394  19.600   2.416  1.00 99.07 LIG 0.22  C 
ATOM     41 O    ALA E  14      -7.570  19.972   1.256  1.00120.33 LIG-0.29  OA
ENDBRANCH 38 40
ENDBRANCH 35 38
ENDBRANCH 32 34
ENDBRANCH 29 32
ENDBRANCH 26 28
ENDBRANCH 23 26
ENDBRANCH 1 22
TORSDOF 13
ENDMDL
MODEL 167
USER: ADFR SOLUTION from run 21
USER: SCORE 5.826479 LL:  -3.021 LR:  -3.739 RR:   0.000 FEB:   0.139
USER: RMSD 5.406771
USER: SEED 20
USER: STATUS no improvement in best in 45 clusters for 5 generations
USER: GENES 15
USER: genes 0 Translation |==|  0.64731 0.33691 0.61674
USER: genes 1 Rotation |==|  0.81901 0.70635 0.58790 0.81294
USER: genes 2 Torsion [CB]-CA--N-[C] |==|  0.12819
USER: genes 3 Torsion [N]-C--CA-[N] |==|  0.03910
USER: genes 4 Torsion [C]-CA--N-[C] |==|  0.73950
USER: genes 5 Torsion [N]-C--CA-[N] |==|  0.39803
USER: genes 6 Torsion [C]-CA--N-[C] |==|  0.81519
USER: genes 7 Torsion [N]-C--CA-[N] |==|  0.37661
USER: genes 8 Torsion [N]-CA--C-[N] |==|  0.09584
USER: genes 9 Torsion [C]-N--CA-[CB] |==|  0.50130
USER: genes 10 Torsion [N]-CA--C-[N] |==|  0.44970
USER: genes 11 Torsion [C]-N--CA-[CB] |==|  0.86747
USER: genes 12 Torsion [N]-CA--C-[N] |==|  0.90905
USER: genes 13 Torsion [C]-N--CA-[C] |==|  0.70848
USER: genes 14 Torsion [N]-CA--C-[O] |==|  0.99585
ROOT
ATOM      1  CA  ALA E  11       2.095  20.693   3.295  1.00 85.35 LIG 0.17  C 
ATOM      2  CB  ALA E  11       2.567  19.347   3.847  1.00 80.46 LIG 0.04  C 
ENDROOT
BRANCH 1 3
ATOM      3  N   ALA E  11       2.686  21.785   4.062  1.00 87.15 LIG-0.35  N 
ATOM      4  C   ALA E  10       3.988  21.775   4.357  1.00 62.15 LIG 0.24  C 
ATOM      5 O    ALA E  10       4.775  20.981   3.840  1.00 65.72 LIG-0.27  OA
ATOM      6 H    ALA E  11       2.137  22.405   4.294  1.00 87.15 LIG 0.16  HD
BRANCH 4 7
ATOM      7  CA  ALA E  10       4.488  22.799   5.370  1.00 66.45 LIG 0.17  C 
ATOM      8  CB  ALA E  10       5.461  22.145   6.350  1.00 58.63 LIG 0.04  C 
BRANCH 7 9
ATOM      9  N   ALA E  10       3.394  23.420   6.102  1.00 75.43 LIG-0.35  N 
ATOM     10  C   ALA E   9       2.832  24.568   5.730  1.00 82.21 LIG 0.24  C 
ATOM     11 O    ALA E   9       3.208  25.226   4.753  1.00 73.75 LIG-0.27  OA
ATOM     12 H    ALA E  10       3.145  22.977   6.796  1.00 75.43 LIG 0.16  HD
BRANCH 10 13
ATOM     13  CA  ALA E   9       1.689  25.067   6.604  1.00 87.65 LIG 0.17  C 
ATOM     14  CB  ALA E   9       0.339  24.617   6.050  1.00 72.21 LIG 0.04  C 
BRANCH 13 15
ATOM     15  N   ALA E   9       1.779  26.520   6.672  1.00 84.24 LIG-0.35  N 
ATOM     16 H    ALA E   9       1.127  26.931   6.291  1.00 84.24 LIG 0.16  HD
ATOM     17  C   ALA E   8       2.785  27.139   7.274  1.00 61.40 LIG 0.26  C 
ATOM     18 O    ALA E   8       3.660  26.538   7.895  1.00 66.21 LIG-0.27  OA
BRANCH 17 19
ATOM     19  CA  ALA E   8       2.791  28.662   7.186  1.00 67.03 LIG 0.40  C 
ATOM     20  N   ALA E   8       3.113  29.266   8.514  1.00 60.26 LIG 0.61  N 
ATOM     21  CB  ALA E   8       3.786  29.136   6.132  1.00 64.64 LIG 0.06  C 
ENDBRANCH 17 19
ENDBRANCH 13 15
ENDBRANCH 10 13
ENDBRANCH 7 9
ENDBRANCH 4 7
ENDBRANCH 1 3
BRANCH 1 22
ATOM     22  C   ALA E  11       0.572  20.763   3.307  1.00 81.78 LIG 0.24  C 
ATOM     23  N   ALA E  12       0.012  21.971   3.314  1.00 82.91 LIG-0.35  N 
ATOM     24 H    ALA E  12       0.439  22.710   3.201  1.00 82.91 LIG 0.16  HD
ATOM     25 O    ALA E  11      -0.105  19.728   3.322  1.00 89.30 LIG-0.27  OA
BRANCH 23 26
ATOM     26  CA  ALA E  12      -1.422  22.113   3.521  1.00 61.10 LIG 0.17  C 
ATOM     27  CB  ALA E  12      -1.836  23.592   3.477  1.00 65.27 LIG 0.04  C 
BRANCH 26 28
ATOM     28  C   ALA E  12      -2.193  21.314   2.483  1.00 54.59 LIG 0.24  C 
ATOM     29  N   ALA E  13      -3.464  21.067   2.798  1.00 64.78 LIG-0.35  N 
ATOM     30 H    ALA E  13      -3.853  21.382   3.498  1.00 64.78 LIG 0.16  HD
ATOM     31 O    ALA E  12      -1.670  20.966   1.420  1.00 69.11 LIG-0.27  OA
BRANCH 29 32
ATOM     32  CA  ALA E  13      -4.316  20.229   1.969  1.00 54.23 LIG 0.17  C 
ATOM     33  CB  ALA E  13      -4.192  20.647   0.504  1.00 56.27 LIG 0.04  C 
BRANCH 32 34
ATOM     34  C   ALA E  13      -3.962  18.757   2.078  1.00 65.29 LIG 0.24  C 
ATOM     35  N   ALA E  14      -2.675  18.496   2.278  1.00 85.74 LIG-0.35  N 
ATOM     36 H    ALA E  14      -2.068  19.103   2.308  1.00 85.74 LIG 0.16  HD
ATOM     37 O    ALA E  13      -4.832  17.883   2.043  1.00 75.52 LIG-0.27  OA
BRANCH 35 38
ATOM     38  CA  ALA E  14      -2.170  17.148   2.465  1.00 94.46 LIG 0.16  C 
ATOM     39  CB  ALA E  14      -0.954  16.922   1.596  1.00106.12 LIG 0.04  C 
BRANCH 38 40
ATOM     40  C   ALA E  14      -1.832  16.908   3.932  1.00 99.07 LIG 0.22  C 
ATOM     41 O    ALA E  14      -1.971  17.803   4.766  1.00120.33 LIG-0.29  OA
ENDBRANCH 38 40
ENDBRANCH 35 38
ENDBRANCH 32 34
ENDBRANCH 29 32
ENDBRANCH 26 28
ENDBRANCH 23 26
ENDBRANCH 1 22
TORSDOF 13
ENDMDL
MODEL 168
USER: ADFR SOLUTION from run 119
USER: SCORE 4.314725 LL:  -2.448 LR:  -3.732 RR:   0.000 FEB:   0.146
USER: RMSD 4.555899
USER: SEED 118
USER: STATUS no improvement in best in 76 clusters for 5 generations
USER: GENES 15
USER: genes 0 Translation |==|  0.53084 0.40932 0.68649
USER: genes 1 Rotation |==|  0.45925 0.30509 0.51221 0.95848
USER: genes 2 Torsion [CB]-CA--N-[C] |==|  0.53333
USER: genes 3 Torsion [N]-C--CA-[N] |==|  0.43841
USER: genes 4 Torsion [C]-CA--N-[C] |==|  0.78000
USER: genes 5 Torsion [N]-C--CA-[N] |==|  0.02414
USER: genes 6 Torsion [C]-CA--N-[C] |==|  0.77057
USER: genes 7 Torsion [N]-C--CA-[N] |==|  0.56222
USER: genes 8 Torsion [N]-CA--C-[N] |==|  0.77929
USER: genes 9 Torsion [C]-N--CA-[CB] |==|  0.17783
USER: genes 10 Torsion [N]-CA--C-[N] |==|  0.11538
USER: genes 11 Torsion [C]-N--CA-[CB] |==|  0.51809
USER: genes 12 Torsion [N]-CA--C-[N] |==|  0.41826
USER: genes 13 Torsion [C]-N--CA-[C] |==|  0.71477
USER: genes 14 Torsion [N]-CA--C-[O] |==|  0.01194
ROOT
ATOM      1  CA  ALA E  11      -0.526  21.997   4.551  1.00 85.35 LIG 0.17  C 
ATOM      2  CB  ALA E  11      -1.954  22.541   4.620  1.00 80.46 LIG 0.04  C 
ENDROOT
BRANCH 1 3
ATOM      3  N   ALA E  11       0.433  23.072   4.778  1.00 87.15 LIG-0.35  N 
ATOM      4  C   ALA E  10       1.731  22.884   4.529  1.00 62.15 LIG 0.24  C 
ATOM      5 O    ALA E  10       2.149  21.898   3.919  1.00 65.72 LIG-0.27  OA
ATOM      6 H    ALA E  11       0.094  23.806   5.073  1.00 87.15 LIG 0.16  HD
BRANCH 4 7
ATOM      7  CA  ALA E  10       2.705  23.946   5.026  1.00 66.45 LIG 0.17  C 
ATOM      8  CB  ALA E  10       2.713  25.145   4.078  1.00 58.63 LIG 0.04  C 
BRANCH 7 9
ATOM      9  N   ALA E  10       4.055  23.423   5.170  1.00 75.43 LIG-0.35  N 
ATOM     10  C   ALA E   9       4.442  22.691   6.212  1.00 82.21 LIG 0.24  C 
ATOM     11 O    ALA E   9       3.704  22.419   7.165  1.00 73.75 LIG-0.27  OA
ATOM     12 H    ALA E  10       4.579  23.630   4.519  1.00 75.43 LIG 0.16  HD
BRANCH 10 13
ATOM     13  CA  ALA E   9       5.888  22.213   6.194  1.00 87.65 LIG 0.17  C 
ATOM     14  CB  ALA E   9       6.578  22.504   7.525  1.00 72.21 LIG 0.04  C 
BRANCH 13 15
ATOM     15  N   ALA E   9       6.565  22.875   5.087  1.00 84.24 LIG-0.35  N 
ATOM     16 H    ALA E   9       7.014  23.572   5.315  1.00 84.24 LIG 0.16  HD
ATOM     17  C   ALA E   8       6.487  22.429   3.840  1.00 61.40 LIG 0.26  C 
ATOM     18 O    ALA E   8       5.920  21.379   3.545  1.00 66.21 LIG-0.27  OA
BRANCH 17 19
ATOM     19  CA  ALA E   8       7.173  23.278   2.775  1.00 67.03 LIG 0.40  C 
ATOM     20  N   ALA E   8       6.588  23.006   1.428  1.00 60.26 LIG 0.61  N 
ATOM     21  CB  ALA E   8       7.062  24.760   3.114  1.00 64.64 LIG 0.06  C 
ENDBRANCH 17 19
ENDBRANCH 13 15
ENDBRANCH 10 13
ENDBRANCH 7 9
ENDBRANCH 4 7
ENDBRANCH 1 3
BRANCH 1 22
ATOM     22  C   ALA E  11      -0.288  21.310   3.212  1.00 81.78 LIG 0.24  C 
ATOM     23  N   ALA E  12      -0.748  21.917   2.119  1.00 82.91 LIG-0.35  N 
ATOM     24 H    ALA E  12      -1.069  22.715   2.100  1.00 82.91 LIG 0.16  HD
ATOM     25 O    ALA E  11       0.300  20.223   3.157  1.00 89.30 LIG-0.27  OA
BRANCH 23 26
ATOM     26  CA  ALA E  12      -0.729  21.229   0.835  1.00 61.10 LIG 0.17  C 
ATOM     27  CB  ALA E  12      -1.646  19.996   0.865  1.00 65.27 LIG 0.04  C 
BRANCH 26 28
ATOM     28  C   ALA E  12      -1.144  22.173  -0.282  1.00 54.59 LIG 0.24  C 
ATOM     29  N   ALA E  13      -0.634  23.401  -0.193  1.00 64.78 LIG-0.35  N 
ATOM     30 H    ALA E  13      -0.064  23.640   0.405  1.00 64.78 LIG 0.16  HD
ATOM     31 O    ALA E  12      -1.865  21.795  -1.209  1.00 69.11 LIG-0.27  OA
BRANCH 29 32
ATOM     32  CA  ALA E  13      -1.007  24.460  -1.117  1.00 54.23 LIG 0.17  C 
ATOM     33  CB  ALA E  13      -0.146  25.699  -0.867  1.00 56.27 LIG 0.04  C 
BRANCH 32 34
ATOM     34  C   ALA E  13      -0.841  24.047  -2.568  1.00 65.29 LIG 0.24  C 
ATOM     35  N   ALA E  14      -1.672  24.634  -3.423  1.00 85.74 LIG-0.35  N 
ATOM     36 H    ALA E  14      -2.289  25.181  -3.184  1.00 85.74 LIG 0.16  HD
ATOM     37 O    ALA E  13       0.050  23.268  -2.916  1.00 75.52 LIG-0.27  OA
BRANCH 35 38
ATOM     38  CA  ALA E  14      -1.612  24.401  -4.855  1.00 94.46 LIG 0.16  C 
ATOM     39  CB  ALA E  14      -3.002  24.181  -5.405  1.00106.12 LIG 0.04  C 
BRANCH 38 40
ATOM     40  C   ALA E  14      -0.940  25.578  -5.555  1.00 99.07 LIG 0.22  C 
ATOM     41 O    ALA E  14      -0.466  26.510  -4.906  1.00120.33 LIG-0.29  OA
ENDBRANCH 38 40
ENDBRANCH 35 38
ENDBRANCH 32 34
ENDBRANCH 29 32
ENDBRANCH 26 28
ENDBRANCH 23 26
ENDBRANCH 1 22
TORSDOF 13
ENDMDL
MODEL 169
USER: ADFR SOLUTION from run 86
USER: SCORE 3.684124 LL:  -2.392 LR:  -3.732 RR:   0.000 FEB:   0.146
USER: RMSD 4.403267
USER: SEED 85
USER: STATUS no improvement in best in 62 clusters for 5 generations
USER: GENES 15
USER: genes 0 Translation |==|  0.69266 0.33569 0.59240
USER: genes 1 Rotation |==|  0.73851 0.54903 0.58402 0.92855
USER: genes 2 Torsion [CB]-CA--N-[C] |==|  0.19133
USER: genes 3 Torsion [N]-C--CA-[N] |==|  0.07274
USER: genes 4 Torsion [C]-CA--N-[C] |==|  0.61988
USER: genes 5 Torsion [N]-C--CA-[N] |==|  0.41292
USER: genes 6 Torsion [C]-CA--N-[C] |==|  0.62828
USER: genes 7 Torsion [N]-C--CA-[N] |==|  0.65796
USER: genes 8 Torsion [N]-CA--C-[N] |==|  0.66667
USER: genes 9 Torsion [C]-N--CA-[CB] |==|  0.19292
USER: genes 10 Torsion [N]-CA--C-[N] |==|  0.56515
USER: genes 11 Torsion [C]-N--CA-[CB] |==|  0.85398
USER: genes 12 Torsion [N]-CA--C-[N] |==|  0.92597
USER: genes 13 Torsion [C]-N--CA-[C] |==|  0.66327
USER: genes 14 Torsion [N]-CA--C-[O] |==|  0.98723
ROOT
ATOM      1  CA  ALA E  11       3.115  20.671   2.857  1.00 85.35 LIG 0.17  C 
ATOM      2  CB  ALA E  11       2.577  19.679   3.890  1.00 80.46 LIG 0.04  C 
ENDROOT
BRANCH 1 3
ATOM      3  N   ALA E  11       3.656  21.849   3.527  1.00 87.15 LIG-0.35  N 
ATOM      4  C   ALA E  10       4.772  21.759   4.256  1.00 62.15 LIG 0.24  C 
ATOM      5 O    ALA E  10       5.495  20.762   4.233  1.00 65.72 LIG-0.27  OA
ATOM      6 H    ALA E  11       3.205  22.572   3.412  1.00 87.15 LIG 0.16  HD
BRANCH 4 7
ATOM      7  CA  ALA E  10       5.138  22.951   5.133  1.00 66.45 LIG 0.17  C 
ATOM      8  CB  ALA E  10       5.877  22.481   6.385  1.00 58.63 LIG 0.04  C 
BRANCH 7 9
ATOM      9  N   ALA E  10       3.967  23.726   5.514  1.00 75.43 LIG-0.35  N 
ATOM     10  C   ALA E   9       3.943  25.057   5.500  1.00 82.21 LIG 0.24  C 
ATOM     11 O    ALA E   9       4.918  25.753   5.196  1.00 73.75 LIG-0.27  OA
ATOM     12 H    ALA E  10       3.294  23.245   5.749  1.00 75.43 LIG 0.16  HD
BRANCH 10 13
ATOM     13  CA  ALA E   9       2.630  25.707   5.916  1.00 87.65 LIG 0.17  C 
ATOM     14  CB  ALA E   9       1.706  25.894   4.715  1.00 72.21 LIG 0.04  C 
BRANCH 13 15
ATOM     15  N   ALA E   9       2.942  26.980   6.552  1.00 84.24 LIG-0.35  N 
ATOM     16 H    ALA E   9       3.516  27.456   6.124  1.00 84.24 LIG 0.16  HD
ATOM     17  C   ALA E   8       2.382  27.359   7.693  1.00 61.40 LIG 0.26  C 
ATOM     18 O    ALA E   8       1.494  26.711   8.244  1.00 66.21 LIG-0.27  OA
BRANCH 17 19
ATOM     19  CA  ALA E   8       2.875  28.676   8.284  1.00 67.03 LIG 0.40  C 
ATOM     20  N   ALA E   8       3.388  28.470   9.672  1.00 60.26 LIG 0.61  N 
ATOM     21  CB  ALA E   8       3.958  29.289   7.403  1.00 64.64 LIG 0.06  C 
ENDBRANCH 17 19
ENDBRANCH 13 15
ENDBRANCH 10 13
ENDBRANCH 7 9
ENDBRANCH 4 7
ENDBRANCH 1 3
BRANCH 1 22
ATOM     22  C   ALA E  11       2.020  21.047   1.866  1.00 81.78 LIG 0.24  C 
ATOM     23  N   ALA E  12       0.808  20.530   2.064  1.00 82.91 LIG-0.35  N 
ATOM     24 H    ALA E  12       0.571  20.093   2.766  1.00 82.91 LIG 0.16  HD
ATOM     25 O    ALA E  11       2.265  21.793   0.911  1.00 89.30 LIG-0.27  OA
BRANCH 23 26
ATOM     26  CA  ALA E  12      -0.229  20.687   1.054  1.00 61.10 LIG 0.17  C 
ATOM     27  CB  ALA E  12       0.098  19.857  -0.197  1.00 65.27 LIG 0.04  C 
BRANCH 26 28
ATOM     28  C   ALA E  12      -1.585  20.290   1.616  1.00 54.59 LIG 0.24  C 
ATOM     29  N   ALA E  13      -2.484  19.927   0.701  1.00 64.78 LIG-0.35  N 
ATOM     30 H    ALA E  13      -2.310  19.854  -0.138  1.00 64.78 LIG 0.16  HD
ATOM     31 O    ALA E  12      -1.799  20.277   2.831  1.00 69.11 LIG-0.27  OA
BRANCH 29 32
ATOM     32  CA  ALA E  13      -3.860  19.618   1.053  1.00 54.23 LIG 0.17  C 
ATOM     33  CB  ALA E  13      -3.892  18.576   2.172  1.00 56.27 LIG 0.04  C 
BRANCH 32 34
ATOM     34  C   ALA E  13      -4.629  20.842   1.518  1.00 65.29 LIG 0.24  C 
ATOM     35  N   ALA E  14      -3.889  21.806   2.053  1.00 85.74 LIG-0.35  N 
ATOM     36 H    ALA E  14      -3.040  21.742   2.171  1.00 85.74 LIG 0.16  HD
ATOM     37 O    ALA E  13      -5.846  20.940   1.343  1.00 75.52 LIG-0.27  OA
BRANCH 35 38
ATOM     38  CA  ALA E  14      -4.452  23.069   2.495  1.00 94.46 LIG 0.16  C 
ATOM     39  CB  ALA E  14      -4.275  23.224   3.988  1.00106.12 LIG 0.04  C 
BRANCH 38 40
ATOM     40  C   ALA E  14      -3.795  24.229   1.755  1.00 99.07 LIG 0.22  C 
ATOM     41 O    ALA E  14      -2.860  24.033   0.978  1.00120.33 LIG-0.29  OA
ENDBRANCH 38 40
ENDBRANCH 35 38
ENDBRANCH 32 34
ENDBRANCH 29 32
ENDBRANCH 26 28
ENDBRANCH 23 26
ENDBRANCH 1 22
TORSDOF 13
ENDMDL
MODEL 170
USER: ADFR SOLUTION from run 66
USER: SCORE 4.033008 LL:  -2.280 LR:  -3.735 RR:   0.000 FEB:   0.143
USER: RMSD 3.028446
USER: SEED 65
USER: STATUS no improvement in best in 67 clusters for 5 generations
USER: GENES 15
USER: genes 0 Translation |==|  0.66667 0.32567 0.57117
USER: genes 1 Rotation |==|  0.70097 0.59028 0.53513 0.94746
USER: genes 2 Torsion [CB]-CA--N-[C] |==|  0.14280
USER: genes 3 Torsion [N]-C--CA-[N] |==|  0.14406
USER: genes 4 Torsion [C]-CA--N-[C] |==|  0.19290
USER: genes 5 Torsion [N]-C--CA-[N] |==|  0.96876
USER: genes 6 Torsion [C]-CA--N-[C] |==|  0.82148
USER: genes 7 Torsion [N]-C--CA-[N] |==|  0.32381
USER: genes 8 Torsion [N]-CA--C-[N] |==|  0.66236
USER: genes 9 Torsion [C]-N--CA-[CB] |==|  0.52913
USER: genes 10 Torsion [N]-CA--C-[N] |==|  0.42112
USER: genes 11 Torsion [C]-N--CA-[CB] |==|  0.49444
USER: genes 12 Torsion [N]-CA--C-[N] |==|  0.45013
USER: genes 13 Torsion [C]-N--CA-[C] |==|  0.77743
USER: genes 14 Torsion [N]-CA--C-[O] |==|  0.94941
ROOT
ATOM      1  CA  ALA E  11       2.530  20.491   2.475  1.00 85.35 LIG 0.17  C 
ATOM      2  CB  ALA E  11       2.157  19.789   3.782  1.00 80.46 LIG 0.04  C 
ENDROOT
BRANCH 1 3
ATOM      3  N   ALA E  11       3.274  21.714   2.757  1.00 87.15 LIG-0.35  N 
ATOM      4  C   ALA E  10       4.338  21.687   3.564  1.00 62.15 LIG 0.24  C 
ATOM      5 O    ALA E  10       4.856  20.633   3.935  1.00 65.72 LIG-0.27  OA
ATOM      6 H    ALA E  11       2.973  22.421   2.369  1.00 87.15 LIG 0.16  HD
BRANCH 4 7
ATOM      7  CA  ALA E  10       4.909  23.025   4.021  1.00 66.45 LIG 0.17  C 
ATOM      8  CB  ALA E  10       6.026  22.805   5.039  1.00 58.63 LIG 0.04  C 
BRANCH 7 9
ATOM      9  N   ALA E  10       3.885  23.887   4.592  1.00 75.43 LIG-0.35  N 
ATOM     10  C   ALA E   9       3.293  23.637   5.757  1.00 82.21 LIG 0.24  C 
ATOM     11 O    ALA E   9       3.533  22.636   6.442  1.00 73.75 LIG-0.27  OA
ATOM     12 H    ALA E  10       3.698  24.572   4.106  1.00 75.43 LIG 0.16  HD
BRANCH 10 13
ATOM     13  CA  ALA E   9       2.253  24.652   6.212  1.00 87.65 LIG 0.17  C 
ATOM     14  CB  ALA E   9       0.849  24.053   6.173  1.00 72.21 LIG 0.04  C 
BRANCH 13 15
ATOM     15  N   ALA E   9       2.359  25.820   5.346  1.00 84.24 LIG-0.35  N 
ATOM     16 H    ALA E   9       1.660  25.966   4.866  1.00 84.24 LIG 0.16  HD
ATOM     17  C   ALA E   8       3.445  26.580   5.311  1.00 61.40 LIG 0.26  C 
ATOM     18 O    ALA E   8       4.398  26.412   6.069  1.00 66.21 LIG-0.27  OA
BRANCH 17 19
ATOM     19  CA  ALA E   8       3.444  27.713   4.289  1.00 67.03 LIG 0.40  C 
ATOM     20  N   ALA E   8       3.508  29.039   4.974  1.00 60.26 LIG 0.61  N 
ATOM     21  CB  ALA E   8       4.609  27.561   3.317  1.00 64.64 LIG 0.06  C 
ENDBRANCH 17 19
ENDBRANCH 13 15
ENDBRANCH 10 13
ENDBRANCH 7 9
ENDBRANCH 4 7
ENDBRANCH 1 3
BRANCH 1 22
ATOM     22  C   ALA E  11       1.279  20.775   1.653  1.00 81.78 LIG 0.24  C 
ATOM     23  N   ALA E  12       0.107  20.413   2.172  1.00 82.91 LIG-0.35  N 
ATOM     24 H    ALA E  12      -0.006  20.134   2.978  1.00 82.91 LIG 0.16  HD
ATOM     25 O    ALA E  11       1.364  21.311   0.541  1.00 89.30 LIG-0.27  OA
BRANCH 23 26
ATOM     26  CA  ALA E  12      -1.103  20.475   1.364  1.00 61.10 LIG 0.17  C 
ATOM     27  CB  ALA E  12      -2.351  20.265   2.234  1.00 65.27 LIG 0.04  C 
BRANCH 26 28
ATOM     28  C   ALA E  12      -1.186  21.803   0.628  1.00 54.59 LIG 0.24  C 
ATOM     29  N   ALA E  13      -1.854  21.763  -0.525  1.00 64.78 LIG-0.35  N 
ATOM     30 H    ALA E  13      -2.267  21.066  -0.813  1.00 64.78 LIG 0.16  HD
ATOM     31 O    ALA E  12      -0.697  22.833   1.102  1.00 69.11 LIG-0.27  OA
BRANCH 29 32
ATOM     32  CA  ALA E  13      -1.941  22.915  -1.407  1.00 54.23 LIG 0.17  C 
ATOM     33  CB  ALA E  13      -2.726  22.550  -2.667  1.00 56.27 LIG 0.04  C 
BRANCH 32 34
ATOM     34  C   ALA E  13      -2.623  24.100  -0.746  1.00 65.29 LIG 0.24  C 
ATOM     35  N   ALA E  14      -2.412  25.274  -1.330  1.00 85.74 LIG-0.35  N 
ATOM     36 H    ALA E  14      -1.899  25.379  -2.011  1.00 85.74 LIG 0.16  HD
ATOM     37 O    ALA E  13      -3.366  23.951   0.227  1.00 75.52 LIG-0.27  OA
BRANCH 35 38
ATOM     38  CA  ALA E  14      -3.036  26.501  -0.867  1.00 94.46 LIG 0.16  C 
ATOM     39  CB  ALA E  14      -2.232  27.697  -1.323  1.00106.12 LIG 0.04  C 
BRANCH 38 40
ATOM     40  C   ALA E  14      -4.469  26.592  -1.378  1.00 99.07 LIG 0.22  C 
ATOM     41 O    ALA E  14      -4.845  25.904  -2.327  1.00120.33 LIG-0.29  OA
ENDBRANCH 38 40
ENDBRANCH 35 38
ENDBRANCH 32 34
ENDBRANCH 29 32
ENDBRANCH 26 28
ENDBRANCH 23 26
ENDBRANCH 1 22
TORSDOF 13
ENDMDL
MODEL 171
USER: ADFR SOLUTION from run 66
USER: SCORE 5.357727 LL:  -2.845 LR:  -3.726 RR:   0.000 FEB:   0.152
USER: RMSD 4.846862
USER: SEED 65
USER: STATUS no improvement in best in 67 clusters for 5 generations
USER: GENES 15
USER: genes 0 Translation |==|  0.66666 0.32561 0.57116
USER: genes 1 Rotation |==|  0.70134 0.58985 0.53486 0.94741
USER: genes 2 Torsion [CB]-CA--N-[C] |==|  0.14270
USER: genes 3 Torsion [N]-C--CA-[N] |==|  0.14393
USER: genes 4 Torsion [C]-CA--N-[C] |==|  0.19282
USER: genes 5 Torsion [N]-C--CA-[N] |==|  0.96878
USER: genes 6 Torsion [C]-CA--N-[C] |==|  0.82150
USER: genes 7 Torsion [N]-C--CA-[N] |==|  0.32382
USER: genes 8 Torsion [N]-CA--C-[N] |==|  0.13013
USER: genes 9 Torsion [C]-N--CA-[CB] |==|  0.50694
USER: genes 10 Torsion [N]-CA--C-[N] |==|  0.43162
USER: genes 11 Torsion [C]-N--CA-[CB] |==|  0.87165
USER: genes 12 Torsion [N]-CA--C-[N] |==|  0.90721
USER: genes 13 Torsion [C]-N--CA-[C] |==|  0.72683
USER: genes 14 Torsion [N]-CA--C-[O] |==|  0.96024
ROOT
ATOM      1  CA  ALA E  11       2.530  20.490   2.475  1.00 85.35 LIG 0.17  C 
ATOM      2  CB  ALA E  11       2.154  19.787   3.781  1.00 80.46 LIG 0.04  C 
ENDROOT
BRANCH 1 3
ATOM      3  N   ALA E  11       3.276  21.711   2.759  1.00 87.15 LIG-0.35  N 
ATOM      4  C   ALA E  10       4.338  21.681   3.568  1.00 62.15 LIG 0.24  C 
ATOM      5 O    ALA E  10       4.854  20.626   3.939  1.00 65.72 LIG-0.27  OA
ATOM      6 H    ALA E  11       2.977  22.419   2.372  1.00 87.15 LIG 0.16  HD
BRANCH 4 7
ATOM      7  CA  ALA E  10       4.911  23.017   4.027  1.00 66.45 LIG 0.17  C 
ATOM      8  CB  ALA E  10       6.026  22.794   5.047  1.00 58.63 LIG 0.04  C 
BRANCH 7 9
ATOM      9  N   ALA E  10       3.888  23.882   4.596  1.00 75.43 LIG-0.35  N 
ATOM     10  C   ALA E   9       3.293  23.631   5.760  1.00 82.21 LIG 0.24  C 
ATOM     11 O    ALA E   9       3.528  22.629   6.444  1.00 73.75 LIG-0.27  OA
ATOM     12 H    ALA E  10       3.705  24.568   4.111  1.00 75.43 LIG 0.16  HD
BRANCH 10 13
ATOM     13  CA  ALA E   9       2.254  24.649   6.213  1.00 87.65 LIG 0.17  C 
ATOM     14  CB  ALA E   9       0.848  24.054   6.170  1.00 72.21 LIG 0.04  C 
BRANCH 13 15
ATOM     15  N   ALA E   9       2.365  25.817   5.348  1.00 84.24 LIG-0.35  N 
ATOM     16 H    ALA E   9       1.667  25.966   4.867  1.00 84.24 LIG 0.16  HD
ATOM     17  C   ALA E   8       3.453  26.574   5.316  1.00 61.40 LIG 0.26  C 
ATOM     18 O    ALA E   8       4.403  26.403   6.077  1.00 66.21 LIG-0.27  OA
BRANCH 17 19
ATOM     19  CA  ALA E   8       3.457  27.708   4.296  1.00 67.03 LIG 0.40  C 
ATOM     20  N   ALA E   8       3.523  29.034   4.982  1.00 60.26 LIG 0.61  N 
ATOM     21  CB  ALA E   8       4.624  27.554   3.326  1.00 64.64 LIG 0.06  C 
ENDBRANCH 17 19
ENDBRANCH 13 15
ENDBRANCH 10 13
ENDBRANCH 7 9
ENDBRANCH 4 7
ENDBRANCH 1 3
BRANCH 1 22
ATOM     22  C   ALA E  11       1.280  20.778   1.652  1.00 81.78 LIG 0.24  C 
ATOM     23  N   ALA E  12       1.411  21.573   0.592  1.00 82.91 LIG-0.35  N 
ATOM     24 H    ALA E  12       2.163  21.846   0.274  1.00 82.91 LIG 0.16  HD
ATOM     25 O    ALA E  11       0.188  20.294   1.975  1.00 89.30 LIG-0.27  OA
BRANCH 23 26
ATOM     26  CA  ALA E  12       0.232  22.045  -0.121  1.00 61.10 LIG 0.17  C 
ATOM     27  CB  ALA E  12       0.634  22.892  -1.338  1.00 65.27 LIG 0.04  C 
BRANCH 26 28
ATOM     28  C   ALA E  12      -0.635  20.873  -0.552  1.00 54.59 LIG 0.24  C 
ATOM     29  N   ALA E  13      -1.922  21.168  -0.733  1.00 64.78 LIG-0.35  N 
ATOM     30 H    ALA E  13      -2.243  21.965  -0.679  1.00 64.78 LIG 0.16  HD
ATOM     31 O    ALA E  12      -0.153  19.755  -0.750  1.00 69.11 LIG-0.27  OA
BRANCH 29 32
ATOM     32  CA  ALA E  13      -2.911  20.148  -1.044  1.00 54.23 LIG 0.17  C 
ATOM     33  CB  ALA E  13      -2.382  19.226  -2.143  1.00 56.27 LIG 0.04  C 
BRANCH 32 34
ATOM     34  C   ALA E  13      -3.266  19.299   0.163  1.00 65.29 LIG 0.24  C 
ATOM     35  N   ALA E  14      -2.273  19.088   1.020  1.00 85.74 LIG-0.35  N 
ATOM     36 H    ALA E  14      -1.472  19.373   0.896  1.00 85.74 LIG 0.16  HD
ATOM     37 O    ALA E  13      -4.417  18.895   0.347  1.00 75.52 LIG-0.27  OA
BRANCH 35 38
ATOM     38  CA  ALA E  14      -2.452  18.349   2.257  1.00 94.46 LIG 0.16  C 
ATOM     39  CB  ALA E  14      -1.264  17.446   2.499  1.00106.12 LIG 0.04  C 
BRANCH 38 40
ATOM     40  C   ALA E  14      -2.641  19.310   3.425  1.00 99.07 LIG 0.22  C 
ATOM     41 O    ALA E  14      -2.374  20.506   3.307  1.00120.33 LIG-0.29  OA
ENDBRANCH 38 40
ENDBRANCH 35 38
ENDBRANCH 32 34
ENDBRANCH 29 32
ENDBRANCH 26 28
ENDBRANCH 23 26
ENDBRANCH 1 22
TORSDOF 13
ENDMDL
MODEL 172
USER: ADFR SOLUTION from run 70
USER: SCORE 4.019532 LL:  -2.464 LR:  -3.734 RR:   0.000 FEB:   0.144
USER: RMSD 3.648937
USER: SEED 69
USER: STATUS no improvement in best in 94 clusters for 5 generations
USER: GENES 15
USER: genes 0 Translation |==|  0.67465 0.34550 0.56718
USER: genes 1 Rotation |==|  0.65041 0.46331 0.51323 0.97524
USER: genes 2 Torsion [CB]-CA--N-[C] |==|  0.19723
USER: genes 3 Torsion [N]-C--CA-[N] |==|  0.16428
USER: genes 4 Torsion [C]-CA--N-[C] |==|  0.20236
USER: genes 5 Torsion [N]-C--CA-[N] |==|  0.01833
USER: genes 6 Torsion [C]-CA--N-[C] |==|  0.76630
USER: genes 7 Torsion [N]-C--CA-[N] |==|  0.52102
USER: genes 8 Torsion [N]-CA--C-[N] |==|  0.79776
USER: genes 9 Torsion [C]-N--CA-[CB] |==|  0.84798
USER: genes 10 Torsion [N]-CA--C-[N] |==|  0.39090
USER: genes 11 Torsion [C]-N--CA-[CB] |==|  0.19193
USER: genes 12 Torsion [N]-CA--C-[N] |==|  0.07223
USER: genes 13 Torsion [C]-N--CA-[C] |==|  0.53566
USER: genes 14 Torsion [N]-CA--C-[O] |==|  0.97625
ROOT
ATOM      1  CA  ALA E  11       2.710  20.848   2.403  1.00 85.35 LIG 0.17  C 
ATOM      2  CB  ALA E  11       1.648  20.591   3.474  1.00 80.46 LIG 0.04  C 
ENDROOT
BRANCH 1 3
ATOM      3  N   ALA E  11       3.593  21.931   2.822  1.00 87.15 LIG-0.35  N 
ATOM      4  C   ALA E  10       4.466  21.745   3.815  1.00 62.15 LIG 0.24  C 
ATOM      5 O    ALA E  10       4.713  20.629   4.275  1.00 65.72 LIG-0.27  OA
ATOM      6 H    ALA E  11       3.499  22.667   2.386  1.00 87.15 LIG 0.16  HD
BRANCH 4 7
ATOM      7  CA  ALA E  10       5.171  22.976   4.374  1.00 66.45 LIG 0.17  C 
ATOM      8  CB  ALA E  10       6.160  22.572   5.466  1.00 58.63 LIG 0.04  C 
BRANCH 7 9
ATOM      9  N   ALA E  10       4.227  23.951   4.900  1.00 75.43 LIG-0.35  N 
ATOM     10  C   ALA E   9       3.560  23.774   6.038  1.00 82.21 LIG 0.24  C 
ATOM     11 O    ALA E   9       3.655  22.755   6.732  1.00 73.75 LIG-0.27  OA
ATOM     12 H    ALA E  10       4.140  24.651   4.407  1.00 75.43 LIG 0.16  HD
BRANCH 10 13
ATOM     13  CA  ALA E   9       2.622  24.902   6.447  1.00 87.65 LIG 0.17  C 
ATOM     14  CB  ALA E   9       1.229  24.366   6.772  1.00 72.21 LIG 0.04  C 
BRANCH 13 15
ATOM     15  N   ALA E   9       2.581  25.867   5.356  1.00 84.24 LIG-0.35  N 
ATOM     16 H    ALA E   9       1.919  25.761   4.817  1.00 84.24 LIG 0.16  HD
ATOM     17  C   ALA E   8       3.492  26.821   5.220  1.00 61.40 LIG 0.26  C 
ATOM     18 O    ALA E   8       4.377  27.018   6.050  1.00 66.21 LIG-0.27  OA
BRANCH 17 19
ATOM     19  CA  ALA E   8       3.370  27.700   3.979  1.00 67.03 LIG 0.40  C 
ATOM     20  N   ALA E   8       4.552  28.604   3.855  1.00 60.26 LIG 0.61  N 
ATOM     21  CB  ALA E   8       3.222  26.844   2.726  1.00 64.64 LIG 0.06  C 
ENDBRANCH 17 19
ENDBRANCH 13 15
ENDBRANCH 10 13
ENDBRANCH 7 9
ENDBRANCH 4 7
ENDBRANCH 1 3
BRANCH 1 22
ATOM     22  C   ALA E  11       2.046  21.154   1.066  1.00 81.78 LIG 0.24  C 
ATOM     23  N   ALA E  12       1.086  22.076   1.052  1.00 82.91 LIG-0.35  N 
ATOM     24 H    ALA E  12       0.889  22.588   1.716  1.00 82.91 LIG 0.16  HD
ATOM     25 O    ALA E  11       2.389  20.551   0.041  1.00 89.30 LIG-0.27  OA
BRANCH 23 26
ATOM     26  CA  ALA E  12       0.280  22.278  -0.144  1.00 61.10 LIG 0.17  C 
ATOM     27  CB  ALA E  12       1.173  22.551  -1.363  1.00 65.27 LIG 0.04  C 
BRANCH 26 28
ATOM     28  C   ALA E  12      -0.610  21.071  -0.397  1.00 54.59 LIG 0.24  C 
ATOM     29  N   ALA E  13      -1.837  21.362  -0.827  1.00 64.78 LIG-0.35  N 
ATOM     30 H    ALA E  13      -2.101  22.159  -1.015  1.00 64.78 LIG 0.16  HD
ATOM     31 O    ALA E  12      -0.191  19.920  -0.245  1.00 69.11 LIG-0.27  OA
BRANCH 29 32
ATOM     32  CA  ALA E  13      -2.851  20.338  -1.019  1.00 54.23 LIG 0.17  C 
ATOM     33  CB  ALA E  13      -3.288  19.775   0.334  1.00 56.27 LIG 0.04  C 
BRANCH 32 34
ATOM     34  C   ALA E  13      -4.080  20.866  -1.736  1.00 65.29 LIG 0.24  C 
ATOM     35  N   ALA E  14      -3.870  21.916  -2.523  1.00 85.74 LIG-0.35  N 
ATOM     36 H    ALA E  14      -3.107  22.303  -2.603  1.00 85.74 LIG 0.16  HD
ATOM     37 O    ALA E  13      -5.175  20.308  -1.630  1.00 75.52 LIG-0.27  OA
BRANCH 35 38
ATOM     38  CA  ALA E  14      -4.921  22.511  -3.329  1.00 94.46 LIG 0.16  C 
ATOM     39  CB  ALA E  14      -5.915  23.225  -2.442  1.00106.12 LIG 0.04  C 
BRANCH 38 40
ATOM     40  C   ALA E  14      -4.325  23.475  -4.349  1.00 99.07 LIG 0.22  C 
ATOM     41 O    ALA E  14      -3.133  23.779  -4.307  1.00120.33 LIG-0.29  OA
ENDBRANCH 38 40
ENDBRANCH 35 38
ENDBRANCH 32 34
ENDBRANCH 29 32
ENDBRANCH 26 28
ENDBRANCH 23 26
ENDBRANCH 1 22
TORSDOF 13
ENDMDL
MODEL 173
USER: ADFR SOLUTION from run 77
USER: SCORE 5.695971 LL:  -2.775 LR:  -3.718 RR:   0.000 FEB:   0.160
USER: RMSD 3.926773
USER: SEED 76
USER: STATUS no improvement in best in 65 clusters for 5 generations
USER: GENES 15
USER: genes 0 Translation |==|  0.65779 0.33011 0.58085
USER: genes 1 Rotation |==|  0.73602 0.69149 0.54723 0.89420
USER: genes 2 Torsion [CB]-CA--N-[C] |==|  0.12958
USER: genes 3 Torsion [N]-C--CA-[N] |==|  0.09966
USER: genes 4 Torsion [C]-CA--N-[C] |==|  0.17883
USER: genes 5 Torsion [N]-C--CA-[N] |==|  0.95412
USER: genes 6 Torsion [C]-CA--N-[C] |==|  0.81260
USER: genes 7 Torsion [N]-C--CA-[N] |==|  0.31104
USER: genes 8 Torsion [N]-CA--C-[N] |==|  0.13302
USER: genes 9 Torsion [C]-N--CA-[CB] |==|  0.84899
USER: genes 10 Torsion [N]-CA--C-[N] |==|  0.39997
USER: genes 11 Torsion [C]-N--CA-[CB] |==|  0.18174
USER: genes 12 Torsion [N]-CA--C-[N] |==|  0.09152
USER: genes 13 Torsion [C]-N--CA-[C] |==|  0.60809
USER: genes 14 Torsion [N]-CA--C-[O] |==|  0.02512
ROOT
ATOM      1  CA  ALA E  11       2.330  20.571   2.649  1.00 85.35 LIG 0.17  C 
ATOM      2  CB  ALA E  11       2.621  19.618   3.810  1.00 80.46 LIG 0.04  C 
ENDROOT
BRANCH 1 3
ATOM      3  N   ALA E  11       2.929  21.876   2.910  1.00 87.15 LIG-0.35  N 
ATOM      4  C   ALA E  10       4.189  21.967   3.342  1.00 62.15 LIG 0.24  C 
ATOM      5 O    ALA E  10       4.956  21.003   3.344  1.00 65.72 LIG-0.27  OA
ATOM      6 H    ALA E  11       2.413  22.548   2.764  1.00 87.15 LIG 0.16  HD
BRANCH 4 7
ATOM      7  CA  ALA E  10       4.667  23.327   3.839  1.00 66.45 LIG 0.17  C 
ATOM      8  CB  ALA E  10       5.876  23.162   4.758  1.00 58.63 LIG 0.04  C 
BRANCH 7 9
ATOM      9  N   ALA E  10       3.614  24.052   4.535  1.00 75.43 LIG-0.35  N 
ATOM     10  C   ALA E   9       3.073  23.628   5.675  1.00 82.21 LIG 0.24  C 
ATOM     11 O    ALA E   9       3.389  22.567   6.226  1.00 73.75 LIG-0.27  OA
ATOM     12 H    ALA E  10       3.375  24.779   4.142  1.00 75.43 LIG 0.16  HD
BRANCH 10 13
ATOM     13  CA  ALA E   9       1.992  24.517   6.274  1.00 87.65 LIG 0.17  C 
ATOM     14  CB  ALA E   9       0.607  23.905   6.079  1.00 72.21 LIG 0.04  C 
BRANCH 13 15
ATOM     15  N   ALA E   9       2.090  25.827   5.643  1.00 84.24 LIG-0.35  N 
ATOM     16 H    ALA E   9       1.420  26.027   5.142  1.00 84.24 LIG 0.16  HD
ATOM     17  C   ALA E   8       3.127  26.631   5.835  1.00 61.40 LIG 0.26  C 
ATOM     18 O    ALA E   8       4.030  26.372   6.627  1.00 66.21 LIG-0.27  OA
BRANCH 17 19
ATOM     19  CA  ALA E   8       3.131  27.931   5.036  1.00 67.03 LIG 0.40  C 
ATOM     20  N   ALA E   8       2.952  29.105   5.941  1.00 60.26 LIG 0.61  N 
ATOM     21  CB  ALA E   8       4.424  28.067   4.239  1.00 64.64 LIG 0.06  C 
ENDBRANCH 17 19
ENDBRANCH 13 15
ENDBRANCH 10 13
ENDBRANCH 7 9
ENDBRANCH 4 7
ENDBRANCH 1 3
BRANCH 1 22
ATOM     22  C   ALA E  11       0.828  20.681   2.421  1.00 81.78 LIG 0.24  C 
ATOM     23  N   ALA E  12       0.402  21.618   1.575  1.00 82.91 LIG-0.35  N 
ATOM     24 H    ALA E  12       0.913  22.089   1.068  1.00 82.91 LIG 0.16  HD
ATOM     25 O    ALA E  11       0.044  19.931   3.014  1.00 89.30 LIG-0.27  OA
BRANCH 23 26
ATOM     26  CA  ALA E  12      -1.021  21.908   1.459  1.00 61.10 LIG 0.17  C 
ATOM     27  CB  ALA E  12      -1.814  20.629   1.149  1.00 65.27 LIG 0.04  C 
BRANCH 26 28
ATOM     28  C   ALA E  12      -1.538  22.559   2.731  1.00 54.59 LIG 0.24  C 
ATOM     29  N   ALA E  13      -2.472  23.491   2.542  1.00 64.78 LIG-0.35  N 
ATOM     30 H    ALA E  13      -2.813  23.677   1.775  1.00 64.78 LIG 0.16  HD
ATOM     31 O    ALA E  12      -1.137  22.207   3.843  1.00 69.11 LIG-0.27  OA
BRANCH 29 32
ATOM     32  CA  ALA E  13      -3.001  24.287   3.638  1.00 54.23 LIG 0.17  C 
ATOM     33  CB  ALA E  13      -1.900  25.178   4.215  1.00 56.27 LIG 0.04  C 
BRANCH 32 34
ATOM     34  C   ALA E  13      -4.155  25.173   3.206  1.00 65.29 LIG 0.24  C 
ATOM     35  N   ALA E  14      -4.927  24.672   2.248  1.00 85.74 LIG-0.35  N 
ATOM     36 H    ALA E  14      -4.776  23.918   1.863  1.00 85.74 LIG 0.16  HD
ATOM     37 O    ALA E  13      -4.380  26.251   3.761  1.00 75.52 LIG-0.27  OA
BRANCH 35 38
ATOM     38  CA  ALA E  14      -6.109  25.358   1.757  1.00 94.46 LIG 0.16  C 
ATOM     39  CB  ALA E  14      -5.777  26.135   0.504  1.00106.12 LIG 0.04  C 
BRANCH 38 40
ATOM     40  C   ALA E  14      -7.227  24.358   1.486  1.00 99.07 LIG 0.22  C 
ATOM     41 O    ALA E  14      -7.121  23.183   1.838  1.00120.33 LIG-0.29  OA
ENDBRANCH 38 40
ENDBRANCH 35 38
ENDBRANCH 32 34
ENDBRANCH 29 32
ENDBRANCH 26 28
ENDBRANCH 23 26
ENDBRANCH 1 22
TORSDOF 13
ENDMDL
MODEL 174
USER: ADFR SOLUTION from run 117
USER: SCORE 5.200588 LL:  -3.265 LR:  -3.718 RR:   0.000 FEB:   0.160
USER: RMSD 5.564119
USER: SEED 116
USER: STATUS searching
USER: GENES 15
USER: genes 0 Translation |==|  0.63657 0.37728 0.57055
USER: genes 1 Rotation |==|  0.76874 0.54280 0.51963 0.91900
USER: genes 2 Torsion [CB]-CA--N-[C] |==|  0.16222
USER: genes 3 Torsion [N]-C--CA-[N] |==|  0.16791
USER: genes 4 Torsion [C]-CA--N-[C] |==|  0.78412
USER: genes 5 Torsion [N]-C--CA-[N] |==|  0.39476
USER: genes 6 Torsion [C]-CA--N-[C] |==|  0.82910
USER: genes 7 Torsion [N]-C--CA-[N] |==|  0.39086
USER: genes 8 Torsion [N]-CA--C-[N] |==|  0.07975
USER: genes 9 Torsion [C]-N--CA-[CB] |==|  0.86987
USER: genes 10 Torsion [N]-CA--C-[N] |==|  0.10024
USER: genes 11 Torsion [C]-N--CA-[CB] |==|  0.83563
USER: genes 12 Torsion [N]-CA--C-[N] |==|  0.42454
USER: genes 13 Torsion [C]-N--CA-[C] |==|  0.17691
USER: genes 14 Torsion [N]-CA--C-[O] |==|  0.09059
ROOT
ATOM      1  CA  ALA E  11       1.853  21.420   2.464  1.00 85.35 LIG 0.17  C 
ATOM      2  CB  ALA E  11       1.210  20.466   3.472  1.00 80.46 LIG 0.04  C 
ENDROOT
BRANCH 1 3
ATOM      3  N   ALA E  11       2.734  22.357   3.152  1.00 87.15 LIG-0.35  N 
ATOM      4  C   ALA E  10       3.756  21.909   3.886  1.00 62.15 LIG 0.24  C 
ATOM      5 O    ALA E  10       4.123  20.734   3.856  1.00 65.72 LIG-0.27  OA
ATOM      6 H    ALA E  11       2.540  23.188   3.042  1.00 87.15 LIG 0.16  HD
BRANCH 4 7
ATOM      7  CA  ALA E  10       4.474  22.914   4.780  1.00 66.45 LIG 0.17  C 
ATOM      8  CB  ALA E  10       5.655  22.248   5.485  1.00 58.63 LIG 0.04  C 
BRANCH 7 9
ATOM      9  N   ALA E  10       3.580  23.502   5.766  1.00 75.43 LIG-0.35  N 
ATOM     10  C   ALA E   9       2.709  24.465   5.472  1.00 82.21 LIG 0.24  C 
ATOM     11 O    ALA E   9       2.603  24.968   4.347  1.00 73.75 LIG-0.27  OA
ATOM     12 H    ALA E  10       3.667  23.171   6.555  1.00 75.43 LIG 0.16  HD
BRANCH 10 13
ATOM     13  CA  ALA E   9       1.840  24.956   6.622  1.00 87.65 LIG 0.17  C 
ATOM     14  CB  ALA E   9       0.491  24.240   6.635  1.00 72.21 LIG 0.04  C 
BRANCH 13 15
ATOM     15  N   ALA E   9       1.678  26.397   6.477  1.00 84.24 LIG-0.35  N 
ATOM     16 H    ALA E   9       0.863  26.650   6.368  1.00 84.24 LIG 0.16  HD
ATOM     17  C   ALA E   8       2.706  27.233   6.512  1.00 61.40 LIG 0.26  C 
ATOM     18 O    ALA E   8       3.853  26.865   6.762  1.00 66.21 LIG-0.27  OA
BRANCH 17 19
ATOM     19  CA  ALA E   8       2.391  28.703   6.255  1.00 67.03 LIG 0.40  C 
ATOM     20  N   ALA E   8       3.199  29.580   7.154  1.00 60.26 LIG 0.61  N 
ATOM     21  CB  ALA E   8       2.647  29.060   4.795  1.00 64.64 LIG 0.06  C 
ENDBRANCH 17 19
ENDBRANCH 13 15
ENDBRANCH 10 13
ENDBRANCH 7 9
ENDBRANCH 4 7
ENDBRANCH 1 3
BRANCH 1 22
ATOM     22  C   ALA E  11       0.777  22.147   1.667  1.00 81.78 LIG 0.24  C 
ATOM     23  N   ALA E  12       1.070  23.361   1.204  1.00 82.91 LIG-0.35  N 
ATOM     24 H    ALA E  12       1.853  23.718   1.226  1.00 82.91 LIG 0.16  HD
ATOM     25 O    ALA E  11      -0.327  21.623   1.475  1.00 89.30 LIG-0.27  OA
BRANCH 23 26
ATOM     26  CA  ALA E  12       0.031  24.189   0.606  1.00 61.10 LIG 0.17  C 
ATOM     27  CB  ALA E  12      -0.802  23.377  -0.397  1.00 65.27 LIG 0.04  C 
BRANCH 26 28
ATOM     28  C   ALA E  12      -0.863  24.781   1.683  1.00 54.59 LIG 0.24  C 
ATOM     29  N   ALA E  13      -0.234  25.117   2.809  1.00 64.78 LIG-0.35  N 
ATOM     30 H    ALA E  13       0.618  25.070   2.913  1.00 64.78 LIG 0.16  HD
ATOM     31 O    ALA E  12      -2.068  24.963   1.490  1.00 69.11 LIG-0.27  OA
BRANCH 29 32
ATOM     32  CA  ALA E  13      -0.951  25.600   3.979  1.00 54.23 LIG 0.17  C 
ATOM     33  CB  ALA E  13      -1.732  26.867   3.626  1.00 56.27 LIG 0.04  C 
BRANCH 32 34
ATOM     34  C   ALA E  13      -1.927  24.574   4.524  1.00 65.29 LIG 0.24  C 
ATOM     35  N   ALA E  14      -2.185  24.671   5.824  1.00 85.74 LIG-0.35  N 
ATOM     36 H    ALA E  14      -1.806  25.244   6.341  1.00 85.74 LIG 0.16  HD
ATOM     37 O    ALA E  13      -2.479  23.756   3.784  1.00 75.52 LIG-0.27  OA
BRANCH 35 38
ATOM     38  CA  ALA E  14      -3.139  23.809   6.498  1.00 94.46 LIG 0.16  C 
ATOM     39  CB  ALA E  14      -4.505  23.952   5.867  1.00106.12 LIG 0.04  C 
BRANCH 38 40
ATOM     40  C   ALA E  14      -2.674  22.359   6.445  1.00 99.07 LIG 0.22  C 
ATOM     41 O    ALA E  14      -1.475  22.080   6.460  1.00120.33 LIG-0.29  OA
ENDBRANCH 38 40
ENDBRANCH 35 38
ENDBRANCH 32 34
ENDBRANCH 29 32
ENDBRANCH 26 28
ENDBRANCH 23 26
ENDBRANCH 1 22
TORSDOF 13
ENDMDL
MODEL 175
USER: ADFR SOLUTION from run 195
USER: SCORE 4.535048 LL:  -2.208 LR:  -3.718 RR:   0.000 FEB:   0.160
USER: RMSD 5.149066
USER: SEED 194
USER: STATUS no improvement in best in 70 clusters for 5 generations
USER: GENES 15
USER: genes 0 Translation |==|  0.55552 0.42118 0.59303
USER: genes 1 Rotation |==|  0.83606 0.59026 0.47502 0.85818
USER: genes 2 Torsion [CB]-CA--N-[C] |==|  0.82687
USER: genes 3 Torsion [N]-C--CA-[N] |==|  0.86918
USER: genes 4 Torsion [C]-CA--N-[C] |==|  0.73559
USER: genes 5 Torsion [N]-C--CA-[N] |==|  0.07154
USER: genes 6 Torsion [C]-CA--N-[C] |==|  0.70322
USER: genes 7 Torsion [N]-C--CA-[N] |==|  0.93203
USER: genes 8 Torsion [N]-CA--C-[N] |==|  0.36667
USER: genes 9 Torsion [C]-N--CA-[CB] |==|  0.50556
USER: genes 10 Torsion [N]-CA--C-[N] |==|  0.38481
USER: genes 11 Torsion [C]-N--CA-[CB] |==|  0.52232
USER: genes 12 Torsion [N]-CA--C-[N] |==|  0.43334
USER: genes 13 Torsion [C]-N--CA-[C] |==|  0.79070
USER: genes 14 Torsion [N]-CA--C-[O] |==|  0.98008
ROOT
ATOM      1  CA  ALA E  11       0.029  22.210   2.868  1.00 85.35 LIG 0.17  C 
ATOM      2  CB  ALA E  11      -0.417  20.981   3.663  1.00 80.46 LIG 0.04  C 
ENDROOT
BRANCH 1 3
ATOM      3  N   ALA E  11       1.158  22.854   3.531  1.00 87.15 LIG-0.35  N 
ATOM      4  C   ALA E  10       1.021  23.361   4.759  1.00 62.15 LIG 0.24  C 
ATOM      5 O    ALA E  10       0.032  23.138   5.457  1.00 65.72 LIG-0.27  OA
ATOM      6 H    ALA E  11       1.887  22.872   3.074  1.00 87.15 LIG 0.16  HD
BRANCH 4 7
ATOM      7  CA  ALA E  10       2.150  24.240   5.288  1.00 66.45 LIG 0.17  C 
ATOM      8  CB  ALA E  10       2.100  25.619   4.632  1.00 58.63 LIG 0.04  C 
BRANCH 7 9
ATOM      9  N   ALA E  10       3.457  23.638   5.069  1.00 75.43 LIG-0.35  N 
ATOM     10  C   ALA E   9       4.084  22.911   5.991  1.00 82.21 LIG 0.24  C 
ATOM     11 O    ALA E   9       3.631  22.710   7.124  1.00 73.75 LIG-0.27  OA
ATOM     12 H    ALA E  10       3.785  23.796   4.290  1.00 75.43 LIG 0.16  HD
BRANCH 10 13
ATOM     13  CA  ALA E   9       5.439  22.345   5.589  1.00 87.65 LIG 0.17  C 
ATOM     14  CB  ALA E   9       6.371  22.245   6.795  1.00 72.21 LIG 0.04  C 
BRANCH 13 15
ATOM     15  N   ALA E   9       5.996  23.207   4.554  1.00 84.24 LIG-0.35  N 
ATOM     16 H    ALA E   9       6.277  23.967   4.844  1.00 84.24 LIG 0.16  HD
ATOM     17  C   ALA E   8       6.056  22.839   3.282  1.00 61.40 LIG 0.26  C 
ATOM     18 O    ALA E   8       5.737  21.715   2.900  1.00 66.21 LIG-0.27  OA
BRANCH 17 19
ATOM     19  CA  ALA E   8       6.581  23.882   2.301  1.00 67.03 LIG 0.40  C 
ATOM     20  N   ALA E   8       6.374  25.261   2.837  1.00 60.26 LIG 0.61  N 
ATOM     21  CB  ALA E   8       8.057  23.644   2.001  1.00 64.64 LIG 0.06  C 
ENDBRANCH 17 19
ENDBRANCH 13 15
ENDBRANCH 10 13
ENDBRANCH 7 9
ENDBRANCH 4 7
ENDBRANCH 1 3
BRANCH 1 22
ATOM     22  C   ALA E  11      -1.137  23.175   2.690  1.00 81.78 LIG 0.24  C 
ATOM     23  N   ALA E  12      -1.707  23.235   1.487  1.00 82.91 LIG-0.35  N 
ATOM     24 H    ALA E  12      -1.540  22.694   0.839  1.00 82.91 LIG 0.16  HD
ATOM     25 O    ALA E  11      -1.521  23.879   3.631  1.00 89.30 LIG-0.27  OA
BRANCH 23 26
ATOM     26  CA  ALA E  12      -2.690  24.267   1.193  1.00 61.10 LIG 0.17  C 
ATOM     27  CB  ALA E  12      -3.241  24.105  -0.232  1.00 65.27 LIG 0.04  C 
BRANCH 26 28
ATOM     28  C   ALA E  12      -3.822  24.230   2.207  1.00 54.59 LIG 0.24  C 
ATOM     29  N   ALA E  13      -4.239  25.426   2.624  1.00 64.78 LIG-0.35  N 
ATOM     30 H    ALA E  13      -3.947  26.171   2.306  1.00 64.78 LIG 0.16  HD
ATOM     31 O    ALA E  12      -4.325  23.164   2.571  1.00 69.11 LIG-0.27  OA
BRANCH 29 32
ATOM     32  CA  ALA E  13      -5.240  25.574   3.668  1.00 54.23 LIG 0.17  C 
ATOM     33  CB  ALA E  13      -5.656  27.040   3.789  1.00 56.27 LIG 0.04  C 
BRANCH 32 34
ATOM     34  C   ALA E  13      -6.483  24.745   3.399  1.00 65.29 LIG 0.24  C 
ATOM     35  N   ALA E  14      -7.196  24.429   4.474  1.00 85.74 LIG-0.35  N 
ATOM     36 H    ALA E  14      -6.965  24.637   5.275  1.00 85.74 LIG 0.16  HD
ATOM     37 O    ALA E  13      -6.822  24.451   2.250  1.00 75.52 LIG-0.27  OA
BRANCH 35 38
ATOM     38  CA  ALA E  14      -8.445  23.693   4.394  1.00 94.46 LIG 0.16  C 
ATOM     39  CB  ALA E  14      -8.795  23.113   5.746  1.00106.12 LIG 0.04  C 
BRANCH 38 40
ATOM     40  C   ALA E  14      -9.564  24.601   3.896  1.00 99.07 LIG 0.22  C 
ATOM     41 O    ALA E  14      -9.377  25.808   3.748  1.00120.33 LIG-0.29  OA
ENDBRANCH 38 40
ENDBRANCH 35 38
ENDBRANCH 32 34
ENDBRANCH 29 32
ENDBRANCH 26 28
ENDBRANCH 23 26
ENDBRANCH 1 22
TORSDOF 13
ENDMDL
MODEL 176
USER: ADFR SOLUTION from run 179
USER: SCORE 5.493933 LL:  -2.641 LR:  -3.723 RR:   0.000 FEB:   0.155
USER: RMSD 4.630553
USER: SEED 178
USER: STATUS no improvement in best in 84 clusters for 5 generations
USER: GENES 15
USER: genes 0 Translation |==|  0.66196 0.33051 0.57768
USER: genes 1 Rotation |==|  0.72462 0.64537 0.56168 0.91786
USER: genes 2 Torsion [CB]-CA--N-[C] |==|  0.15292
USER: genes 3 Torsion [N]-C--CA-[N] |==|  0.09896
USER: genes 4 Torsion [C]-CA--N-[C] |==|  0.20276
USER: genes 5 Torsion [N]-C--CA-[N] |==|  0.92055
USER: genes 6 Torsion [C]-CA--N-[C] |==|  0.83366
USER: genes 7 Torsion [N]-C--CA-[N] |==|  0.29507
USER: genes 8 Torsion [N]-CA--C-[N] |==|  0.10294
USER: genes 9 Torsion [C]-N--CA-[CB] |==|  0.84948
USER: genes 10 Torsion [N]-CA--C-[N] |==|  0.38849
USER: genes 11 Torsion [C]-N--CA-[CB] |==|  0.51759
USER: genes 12 Torsion [N]-CA--C-[N] |==|  0.44952
USER: genes 13 Torsion [C]-N--CA-[C] |==|  0.77008
USER: genes 14 Torsion [N]-CA--C-[O] |==|  0.97831
ROOT
ATOM      1  CA  ALA E  11       2.424  20.578   2.592  1.00 85.35 LIG 0.17  C 
ATOM      2  CB  ALA E  11       2.427  19.669   3.823  1.00 80.46 LIG 0.04  C 
ENDROOT
BRANCH 1 3
ATOM      3  N   ALA E  11       3.002  21.876   2.925  1.00 87.15 LIG-0.35  N 
ATOM      4  C   ALA E  10       4.223  21.954   3.462  1.00 62.15 LIG 0.24  C 
ATOM      5 O    ALA E  10       4.984  20.987   3.510  1.00 65.72 LIG-0.27  OA
ATOM      6 H    ALA E  11       2.502  22.553   2.750  1.00 87.15 LIG 0.16  HD
BRANCH 4 7
ATOM      7  CA  ALA E  10       4.661  23.303   4.021  1.00 66.45 LIG 0.17  C 
ATOM      8  CB  ALA E  10       5.785  23.116   5.039  1.00 58.63 LIG 0.04  C 
BRANCH 7 9
ATOM      9  N   ALA E  10       3.555  24.022   4.636  1.00 75.43 LIG-0.35  N 
ATOM     10  C   ALA E   9       3.024  23.673   5.806  1.00 82.21 LIG 0.24  C 
ATOM     11 O    ALA E   9       3.397  22.692   6.458  1.00 73.75 LIG-0.27  OA
ATOM     12 H    ALA E  10       3.276  24.692   4.173  1.00 75.43 LIG 0.16  HD
BRANCH 10 13
ATOM     13  CA  ALA E   9       1.881  24.545   6.308  1.00 87.65 LIG 0.17  C 
ATOM     14  CB  ALA E   9       0.529  23.969   5.894  1.00 72.21 LIG 0.04  C 
BRANCH 13 15
ATOM     15  N   ALA E   9       2.074  25.888   5.776  1.00 84.24 LIG-0.35  N 
ATOM     16 H    ALA E   9       1.427  26.167   5.283  1.00 84.24 LIG 0.16  HD
ATOM     17  C   ALA E   8       3.158  26.605   6.037  1.00 61.40 LIG 0.26  C 
ATOM     18 O    ALA E   8       4.030  26.229   6.819  1.00 66.21 LIG-0.27  OA
BRANCH 17 19
ATOM     19  CA  ALA E   8       3.261  27.955   5.336  1.00 67.03 LIG 0.40  C 
ATOM     20  N   ALA E   8       3.007  29.069   6.298  1.00 60.26 LIG 0.61  N 
ATOM     21  CB  ALA E   8       4.629  28.119   4.683  1.00 64.64 LIG 0.06  C 
ENDBRANCH 17 19
ENDBRANCH 13 15
ENDBRANCH 10 13
ENDBRANCH 7 9
ENDBRANCH 4 7
ENDBRANCH 1 3
BRANCH 1 22
ATOM     22  C   ALA E  11       1.009  20.721   2.046  1.00 81.78 LIG 0.24  C 
ATOM     23  N   ALA E  12       0.755  21.768   1.263  1.00 82.91 LIG-0.35  N 
ATOM     24 H    ALA E  12       1.352  22.305   0.954  1.00 82.91 LIG 0.16  HD
ATOM     25 O    ALA E  11       0.136  19.895   2.336  1.00 89.30 LIG-0.27  OA
BRANCH 23 26
ATOM     26  CA  ALA E  12      -0.613  22.072   0.867  1.00 61.10 LIG 0.17  C 
ATOM     27  CB  ALA E  12      -1.277  20.850   0.216  1.00 65.27 LIG 0.04  C 
BRANCH 26 28
ATOM     28  C   ALA E  12      -1.423  22.542   2.065  1.00 54.59 LIG 0.24  C 
ATOM     29  N   ALA E  13      -2.256  23.551   1.815  1.00 64.78 LIG-0.35  N 
ATOM     30 H    ALA E  13      -2.387  23.880   1.031  1.00 64.78 LIG 0.16  HD
ATOM     31 O    ALA E  12      -1.325  21.989   3.164  1.00 69.11 LIG-0.27  OA
BRANCH 29 32
ATOM     32  CA  ALA E  13      -3.029  24.192   2.867  1.00 54.23 LIG 0.17  C 
ATOM     33  CB  ALA E  13      -4.004  25.201   2.258  1.00 56.27 LIG 0.04  C 
BRANCH 32 34
ATOM     34  C   ALA E  13      -3.826  23.196   3.689  1.00 65.29 LIG 0.24  C 
ATOM     35  N   ALA E  14      -4.243  23.639   4.869  1.00 85.74 LIG-0.35  N 
ATOM     36 H    ALA E  14      -4.053  24.419   5.177  1.00 85.74 LIG 0.16  HD
ATOM     37 O    ALA E  13      -4.108  22.079   3.247  1.00 75.52 LIG-0.27  OA
BRANCH 35 38
ATOM     38  CA  ALA E  14      -5.068  22.840   5.758  1.00 94.46 LIG 0.16  C 
ATOM     39  CB  ALA E  14      -4.881  23.293   7.188  1.00106.12 LIG 0.04  C 
BRANCH 38 40
ATOM     40  C   ALA E  14      -6.534  22.940   5.353  1.00 99.07 LIG 0.22  C 
ATOM     41 O    ALA E  14      -6.895  23.735   4.485  1.00120.33 LIG-0.29  OA
ENDBRANCH 38 40
ENDBRANCH 35 38
ENDBRANCH 32 34
ENDBRANCH 29 32
ENDBRANCH 26 28
ENDBRANCH 23 26
ENDBRANCH 1 22
TORSDOF 13
ENDMDL
MODEL 177
USER: ADFR SOLUTION from run 195
USER: SCORE 4.562868 LL:  -2.250 LR:  -3.716 RR:   0.000 FEB:   0.162
USER: RMSD 4.346160
USER: SEED 194
USER: STATUS no improvement in best in 70 clusters for 5 generations
USER: GENES 15
USER: genes 0 Translation |==|  0.55552 0.42118 0.59303
USER: genes 1 Rotation |==|  0.83606 0.59026 0.47502 0.85818
USER: genes 2 Torsion [CB]-CA--N-[C] |==|  0.82687
USER: genes 3 Torsion [N]-C--CA-[N] |==|  0.86918
USER: genes 4 Torsion [C]-CA--N-[C] |==|  0.73559
USER: genes 5 Torsion [N]-C--CA-[N] |==|  0.07154
USER: genes 6 Torsion [C]-CA--N-[C] |==|  0.70322
USER: genes 7 Torsion [N]-C--CA-[N] |==|  0.93203
USER: genes 8 Torsion [N]-CA--C-[N] |==|  0.36667
USER: genes 9 Torsion [C]-N--CA-[CB] |==|  0.18878
USER: genes 10 Torsion [N]-CA--C-[N] |==|  0.12686
USER: genes 11 Torsion [C]-N--CA-[CB] |==|  0.74874
USER: genes 12 Torsion [N]-CA--C-[N] |==|  0.14742
USER: genes 13 Torsion [C]-N--CA-[C] |==|  0.58551
USER: genes 14 Torsion [N]-CA--C-[O] |==|  0.96133
ROOT
ATOM      1  CA  ALA E  11       0.029  22.210   2.868  1.00 85.35 LIG 0.17  C 
ATOM      2  CB  ALA E  11      -0.417  20.981   3.663  1.00 80.46 LIG 0.04  C 
ENDROOT
BRANCH 1 3
ATOM      3  N   ALA E  11       1.158  22.854   3.531  1.00 87.15 LIG-0.35  N 
ATOM      4  C   ALA E  10       1.021  23.361   4.759  1.00 62.15 LIG 0.24  C 
ATOM      5 O    ALA E  10       0.032  23.138   5.457  1.00 65.72 LIG-0.27  OA
ATOM      6 H    ALA E  11       1.887  22.872   3.074  1.00 87.15 LIG 0.16  HD
BRANCH 4 7
ATOM      7  CA  ALA E  10       2.150  24.240   5.288  1.00 66.45 LIG 0.17  C 
ATOM      8  CB  ALA E  10       2.100  25.619   4.632  1.00 58.63 LIG 0.04  C 
BRANCH 7 9
ATOM      9  N   ALA E  10       3.457  23.638   5.069  1.00 75.43 LIG-0.35  N 
ATOM     10  C   ALA E   9       4.084  22.911   5.991  1.00 82.21 LIG 0.24  C 
ATOM     11 O    ALA E   9       3.631  22.710   7.124  1.00 73.75 LIG-0.27  OA
ATOM     12 H    ALA E  10       3.785  23.796   4.290  1.00 75.43 LIG 0.16  HD
BRANCH 10 13
ATOM     13  CA  ALA E   9       5.439  22.345   5.589  1.00 87.65 LIG 0.17  C 
ATOM     14  CB  ALA E   9       6.371  22.245   6.795  1.00 72.21 LIG 0.04  C 
BRANCH 13 15
ATOM     15  N   ALA E   9       5.996  23.207   4.554  1.00 84.24 LIG-0.35  N 
ATOM     16 H    ALA E   9       6.277  23.967   4.844  1.00 84.24 LIG 0.16  HD
ATOM     17  C   ALA E   8       6.056  22.839   3.282  1.00 61.40 LIG 0.26  C 
ATOM     18 O    ALA E   8       5.737  21.715   2.900  1.00 66.21 LIG-0.27  OA
BRANCH 17 19
ATOM     19  CA  ALA E   8       6.581  23.882   2.301  1.00 67.03 LIG 0.40  C 
ATOM     20  N   ALA E   8       6.374  25.261   2.837  1.00 60.26 LIG 0.61  N 
ATOM     21  CB  ALA E   8       8.057  23.644   2.001  1.00 64.64 LIG 0.06  C 
ENDBRANCH 17 19
ENDBRANCH 13 15
ENDBRANCH 10 13
ENDBRANCH 7 9
ENDBRANCH 4 7
ENDBRANCH 1 3
BRANCH 1 22
ATOM     22  C   ALA E  11      -1.137  23.175   2.690  1.00 81.78 LIG 0.24  C 
ATOM     23  N   ALA E  12      -1.707  23.235   1.487  1.00 82.91 LIG-0.35  N 
ATOM     24 H    ALA E  12      -1.540  22.694   0.839  1.00 82.91 LIG 0.16  HD
ATOM     25 O    ALA E  11      -1.521  23.879   3.631  1.00 89.30 LIG-0.27  OA
BRANCH 23 26
ATOM     26  CA  ALA E  12      -2.690  24.267   1.193  1.00 61.10 LIG 0.17  C 
ATOM     27  CB  ALA E  12      -2.031  25.655   1.162  1.00 65.27 LIG 0.04  C 
BRANCH 26 28
ATOM     28  C   ALA E  12      -3.386  23.980  -0.128  1.00 54.59 LIG 0.24  C 
ATOM     29  N   ALA E  13      -3.782  22.717  -0.288  1.00 64.78 LIG-0.35  N 
ATOM     30 H    ALA E  13      -3.715  22.115   0.323  1.00 64.78 LIG 0.16  HD
ATOM     31 O    ALA E  12      -3.591  24.873  -0.955  1.00 69.11 LIG-0.27  OA
BRANCH 29 32
ATOM     32  CA  ALA E  13      -4.369  22.244  -1.531  1.00 54.23 LIG 0.17  C 
ATOM     33  CB  ALA E  13      -5.888  22.411  -1.487  1.00 56.27 LIG 0.04  C 
BRANCH 32 34
ATOM     34  C   ALA E  13      -3.841  22.991  -2.742  1.00 65.29 LIG 0.24  C 
ATOM     35  N   ALA E  14      -2.518  23.027  -2.853  1.00 85.74 LIG-0.35  N 
ATOM     36 H    ALA E  14      -1.984  22.689  -2.271  1.00 85.74 LIG 0.16  HD
ATOM     37 O    ALA E  13      -4.604  23.470  -3.584  1.00 75.52 LIG-0.27  OA
BRANCH 35 38
ATOM     38  CA  ALA E  14      -1.844  23.646  -3.981  1.00 94.46 LIG 0.16  C 
ATOM     39  CB  ALA E  14      -1.612  25.114  -3.706  1.00106.12 LIG 0.04  C 
BRANCH 38 40
ATOM     40  C   ALA E  14      -0.524  22.938  -4.264  1.00 99.07 LIG 0.22  C 
ATOM     41 O    ALA E  14      -0.037  22.162  -3.442  1.00120.33 LIG-0.29  OA
ENDBRANCH 38 40
ENDBRANCH 35 38
ENDBRANCH 32 34
ENDBRANCH 29 32
ENDBRANCH 26 28
ENDBRANCH 23 26
ENDBRANCH 1 22
TORSDOF 13
ENDMDL
MODEL 178
USER: ADFR SOLUTION from run 119
USER: SCORE 4.318487 LL:  -2.627 LR:  -3.716 RR:   0.000 FEB:   0.162
USER: RMSD 4.708396
USER: SEED 118
USER: STATUS no improvement in best in 76 clusters for 5 generations
USER: GENES 15
USER: genes 0 Translation |==|  0.53084 0.40932 0.68649
USER: genes 1 Rotation |==|  0.45925 0.30509 0.51221 0.95848
USER: genes 2 Torsion [CB]-CA--N-[C] |==|  0.53333
USER: genes 3 Torsion [N]-C--CA-[N] |==|  0.43841
USER: genes 4 Torsion [C]-CA--N-[C] |==|  0.78000
USER: genes 5 Torsion [N]-C--CA-[N] |==|  0.02414
USER: genes 6 Torsion [C]-CA--N-[C] |==|  0.77057
USER: genes 7 Torsion [N]-C--CA-[N] |==|  0.56222
USER: genes 8 Torsion [N]-CA--C-[N] |==|  0.77929
USER: genes 9 Torsion [C]-N--CA-[CB] |==|  0.17783
USER: genes 10 Torsion [N]-CA--C-[N] |==|  0.01890
USER: genes 11 Torsion [C]-N--CA-[CB] |==|  0.16791
USER: genes 12 Torsion [N]-CA--C-[N] |==|  0.09213
USER: genes 13 Torsion [C]-N--CA-[C] |==|  0.75305
USER: genes 14 Torsion [N]-CA--C-[O] |==|  0.01204
ROOT
ATOM      1  CA  ALA E  11      -0.526  21.997   4.551  1.00 85.35 LIG 0.17  C 
ATOM      2  CB  ALA E  11      -1.954  22.541   4.620  1.00 80.46 LIG 0.04  C 
ENDROOT
BRANCH 1 3
ATOM      3  N   ALA E  11       0.433  23.072   4.778  1.00 87.15 LIG-0.35  N 
ATOM      4  C   ALA E  10       1.731  22.884   4.529  1.00 62.15 LIG 0.24  C 
ATOM      5 O    ALA E  10       2.149  21.898   3.919  1.00 65.72 LIG-0.27  OA
ATOM      6 H    ALA E  11       0.094  23.806   5.073  1.00 87.15 LIG 0.16  HD
BRANCH 4 7
ATOM      7  CA  ALA E  10       2.705  23.946   5.026  1.00 66.45 LIG 0.17  C 
ATOM      8  CB  ALA E  10       2.713  25.145   4.078  1.00 58.63 LIG 0.04  C 
BRANCH 7 9
ATOM      9  N   ALA E  10       4.055  23.423   5.170  1.00 75.43 LIG-0.35  N 
ATOM     10  C   ALA E   9       4.442  22.691   6.212  1.00 82.21 LIG 0.24  C 
ATOM     11 O    ALA E   9       3.704  22.419   7.165  1.00 73.75 LIG-0.27  OA
ATOM     12 H    ALA E  10       4.579  23.630   4.519  1.00 75.43 LIG 0.16  HD
BRANCH 10 13
ATOM     13  CA  ALA E   9       5.888  22.213   6.194  1.00 87.65 LIG 0.17  C 
ATOM     14  CB  ALA E   9       6.578  22.504   7.525  1.00 72.21 LIG 0.04  C 
BRANCH 13 15
ATOM     15  N   ALA E   9       6.565  22.875   5.087  1.00 84.24 LIG-0.35  N 
ATOM     16 H    ALA E   9       7.014  23.572   5.315  1.00 84.24 LIG 0.16  HD
ATOM     17  C   ALA E   8       6.487  22.429   3.840  1.00 61.40 LIG 0.26  C 
ATOM     18 O    ALA E   8       5.920  21.379   3.545  1.00 66.21 LIG-0.27  OA
BRANCH 17 19
ATOM     19  CA  ALA E   8       7.173  23.278   2.775  1.00 67.03 LIG 0.40  C 
ATOM     20  N   ALA E   8       6.588  23.006   1.428  1.00 60.26 LIG 0.61  N 
ATOM     21  CB  ALA E   8       7.062  24.760   3.114  1.00 64.64 LIG 0.06  C 
ENDBRANCH 17 19
ENDBRANCH 13 15
ENDBRANCH 10 13
ENDBRANCH 7 9
ENDBRANCH 4 7
ENDBRANCH 1 3
BRANCH 1 22
ATOM     22  C   ALA E  11      -0.288  21.310   3.212  1.00 81.78 LIG 0.24  C 
ATOM     23  N   ALA E  12      -0.748  21.917   2.119  1.00 82.91 LIG-0.35  N 
ATOM     24 H    ALA E  12      -1.069  22.715   2.100  1.00 82.91 LIG 0.16  HD
ATOM     25 O    ALA E  11       0.300  20.223   3.157  1.00 89.30 LIG-0.27  OA
BRANCH 23 26
ATOM     26  CA  ALA E  12      -0.729  21.229   0.835  1.00 61.10 LIG 0.17  C 
ATOM     27  CB  ALA E  12      -1.646  19.996   0.865  1.00 65.27 LIG 0.04  C 
BRANCH 26 28
ATOM     28  C   ALA E  12      -1.144  22.173  -0.282  1.00 54.59 LIG 0.24  C 
ATOM     29  N   ALA E  13      -1.298  23.444   0.090  1.00 64.78 LIG-0.35  N 
ATOM     30 H    ALA E  13      -1.119  23.736   0.878  1.00 64.78 LIG 0.16  HD
ATOM     31 O    ALA E  12      -1.282  21.776  -1.442  1.00 69.11 LIG-0.27  OA
BRANCH 29 32
ATOM     32  CA  ALA E  13      -1.791  24.460  -0.826  1.00 54.23 LIG 0.17  C 
ATOM     33  CB  ALA E  13      -3.194  24.092  -1.309  1.00 56.27 LIG 0.04  C 
BRANCH 32 34
ATOM     34  C   ALA E  13      -1.853  25.835  -0.185  1.00 65.29 LIG 0.24  C 
ATOM     35  N   ALA E  14      -0.909  26.084   0.716  1.00 85.74 LIG-0.35  N 
ATOM     36 H    ALA E  14      -0.320  25.506   0.958  1.00 85.74 LIG 0.16  HD
ATOM     37 O    ALA E  13      -2.690  26.670  -0.536  1.00 75.52 LIG-0.27  OA
BRANCH 35 38
ATOM     38  CA  ALA E  14      -0.782  27.368   1.381  1.00 94.46 LIG 0.16  C 
ATOM     39  CB  ALA E  14      -0.229  27.179   2.775  1.00106.12 LIG 0.04  C 
BRANCH 38 40
ATOM     40  C   ALA E  14       0.115  28.298   0.571  1.00 99.07 LIG 0.22  C 
ATOM     41 O    ALA E  14       0.553  27.954  -0.526  1.00120.33 LIG-0.29  OA
ENDBRANCH 38 40
ENDBRANCH 35 38
ENDBRANCH 32 34
ENDBRANCH 29 32
ENDBRANCH 26 28
ENDBRANCH 23 26
ENDBRANCH 1 22
TORSDOF 13
ENDMDL
MODEL 179
USER: ADFR SOLUTION from run 166
USER: SCORE 3.817201 LL:  -2.635 LR:  -3.708 RR:   0.000 FEB:   0.170
USER: RMSD 5.259372
USER: SEED 165
USER: STATUS no improvement in best in 98 clusters for 5 generations
USER: GENES 15
USER: genes 0 Translation |==|  0.56759 0.25875 0.56945
USER: genes 1 Rotation |==|  0.71064 0.55190 0.58792 0.94182
USER: genes 2 Torsion [CB]-CA--N-[C] |==|  0.26174
USER: genes 3 Torsion [N]-C--CA-[N] |==|  0.48123
USER: genes 4 Torsion [C]-CA--N-[C] |==|  0.60211
USER: genes 5 Torsion [N]-C--CA-[N] |==|  0.19159
USER: genes 6 Torsion [C]-CA--N-[C] |==|  0.77751
USER: genes 7 Torsion [N]-C--CA-[N] |==|  0.51820
USER: genes 8 Torsion [N]-CA--C-[N] |==|  0.62485
USER: genes 9 Torsion [C]-N--CA-[CB] |==|  0.18215
USER: genes 10 Torsion [N]-CA--C-[N] |==|  0.11921
USER: genes 11 Torsion [C]-N--CA-[CB] |==|  0.23333
USER: genes 12 Torsion [N]-CA--C-[N] |==|  0.07416
USER: genes 13 Torsion [C]-N--CA-[C] |==|  0.57424
USER: genes 14 Torsion [N]-CA--C-[O] |==|  0.94597
ROOT
ATOM      1  CA  ALA E  11       0.301  19.287   2.444  1.00 85.35 LIG 0.17  C 
ATOM      2  CB  ALA E  11      -0.241  18.414   3.578  1.00 80.46 LIG 0.04  C 
ENDROOT
BRANCH 1 3
ATOM      3  N   ALA E  11       0.803  20.548   2.977  1.00 87.15 LIG-0.35  N 
ATOM      4  C   ALA E  10       2.097  20.686   3.281  1.00 62.15 LIG 0.24  C 
ATOM      5 O    ALA E  10       2.944  19.858   2.944  1.00 65.72 LIG-0.27  OA
ATOM      6 H    ALA E  11       0.211  21.165   3.072  1.00 87.15 LIG 0.16  HD
BRANCH 4 7
ATOM      7  CA  ALA E  10       2.507  21.925   4.068  1.00 66.45 LIG 0.17  C 
ATOM      8  CB  ALA E  10       2.246  23.187   3.246  1.00 58.63 LIG 0.04  C 
BRANCH 7 9
ATOM      9  N   ALA E  10       3.905  21.878   4.468  1.00 75.43 LIG-0.35  N 
ATOM     10  C   ALA E   9       4.342  22.346   5.635  1.00 82.21 LIG 0.24  C 
ATOM     11 O    ALA E   9       3.610  22.891   6.468  1.00 73.75 LIG-0.27  OA
ATOM     12 H    ALA E  10       4.422  21.521   3.880  1.00 75.43 LIG 0.16  HD
BRANCH 10 13
ATOM     13  CA  ALA E   9       5.836  22.203   5.896  1.00 87.65 LIG 0.17  C 
ATOM     14  CB  ALA E   9       6.169  22.511   7.354  1.00 72.21 LIG 0.04  C 
BRANCH 13 15
ATOM     15  N   ALA E   9       6.537  23.102   4.988  1.00 84.24 LIG-0.35  N 
ATOM     16 H    ALA E   9       6.786  23.843   5.349  1.00 84.24 LIG 0.16  HD
ATOM     17  C   ALA E   8       6.765  22.792   3.719  1.00 61.40 LIG 0.26  C 
ATOM     18 O    ALA E   8       6.486  21.692   3.244  1.00 66.21 LIG-0.27  OA
BRANCH 17 19
ATOM     19  CA  ALA E   8       7.429  23.869   2.868  1.00 67.03 LIG 0.40  C 
ATOM     20  N   ALA E   8       7.482  23.451   1.435  1.00 60.26 LIG 0.61  N 
ATOM     21  CB  ALA E   8       6.690  25.196   3.007  1.00 64.64 LIG 0.06  C 
ENDBRANCH 17 19
ENDBRANCH 13 15
ENDBRANCH 10 13
ENDBRANCH 7 9
ENDBRANCH 4 7
ENDBRANCH 1 3
BRANCH 1 22
ATOM     22  C   ALA E  11      -0.778  19.515   1.393  1.00 81.78 LIG 0.24  C 
ATOM     23  N   ALA E  12      -1.874  18.761   1.463  1.00 82.91 LIG-0.35  N 
ATOM     24 H    ALA E  12      -2.067  18.236   2.117  1.00 82.91 LIG 0.16  HD
ATOM     25 O    ALA E  11      -0.623  20.363   0.506  1.00 89.30 LIG-0.27  OA
BRANCH 23 26
ATOM     26  CA  ALA E  12      -2.853  18.789   0.384  1.00 61.10 LIG 0.17  C 
ATOM     27  CB  ALA E  12      -2.253  18.219  -0.910  1.00 65.27 LIG 0.04  C 
BRANCH 26 28
ATOM     28  C   ALA E  12      -4.101  18.015   0.777  1.00 54.59 LIG 0.24  C 
ATOM     29  N   ALA E  13      -4.524  18.233   2.023  1.00 64.78 LIG-0.35  N 
ATOM     30 H    ALA E  13      -4.170  18.809   2.554  1.00 64.78 LIG 0.16  HD
ATOM     31 O    ALA E  12      -4.682  17.280  -0.025  1.00 69.11 LIG-0.27  OA
BRANCH 29 32
ATOM     32  CA  ALA E  13      -5.640  17.499   2.598  1.00 54.23 LIG 0.17  C 
ATOM     33  CB  ALA E  13      -5.153  16.161   3.157  1.00 56.27 LIG 0.04  C 
BRANCH 32 34
ATOM     34  C   ALA E  13      -6.321  18.265   3.718  1.00 65.29 LIG 0.24  C 
ATOM     35  N   ALA E  14      -6.216  19.587   3.646  1.00 85.74 LIG-0.35  N 
ATOM     36 H    ALA E  14      -5.768  19.994   3.036  1.00 85.74 LIG 0.16  HD
ATOM     37 O    ALA E  13      -6.972  17.684   4.589  1.00 75.52 LIG-0.27  OA
BRANCH 35 38
ATOM     38  CA  ALA E  14      -6.858  20.475   4.599  1.00 94.46 LIG 0.16  C 
ATOM     39  CB  ALA E  14      -5.988  20.638   5.824  1.00106.12 LIG 0.04  C 
BRANCH 38 40
ATOM     40  C   ALA E  14      -7.136  21.829   3.957  1.00 99.07 LIG 0.22  C 
ATOM     41 O    ALA E  14      -6.534  22.182   2.943  1.00120.33 LIG-0.29  OA
ENDBRANCH 38 40
ENDBRANCH 35 38
ENDBRANCH 32 34
ENDBRANCH 29 32
ENDBRANCH 26 28
ENDBRANCH 23 26
ENDBRANCH 1 22
TORSDOF 13
ENDMDL
MODEL 180
USER: ADFR SOLUTION from run 166
USER: SCORE 3.965393 LL:  -2.709 LR:  -3.706 RR:   0.000 FEB:   0.172
USER: RMSD 5.167109
USER: SEED 165
USER: STATUS no improvement in best in 98 clusters for 5 generations
USER: GENES 15
USER: genes 0 Translation |==|  0.63927 0.40411 0.56886
USER: genes 1 Rotation |==|  0.73670 0.60637 0.42042 0.91991
USER: genes 2 Torsion [CB]-CA--N-[C] |==|  0.15398
USER: genes 3 Torsion [N]-C--CA-[N] |==|  0.22064
USER: genes 4 Torsion [C]-CA--N-[C] |==|  0.16110
USER: genes 5 Torsion [N]-C--CA-[N] |==|  0.21624
USER: genes 6 Torsion [C]-CA--N-[C] |==|  0.75368
USER: genes 7 Torsion [N]-C--CA-[N] |==|  0.54596
USER: genes 8 Torsion [N]-CA--C-[N] |==|  0.90602
USER: genes 9 Torsion [C]-N--CA-[CB] |==|  0.84443
USER: genes 10 Torsion [N]-CA--C-[N] |==|  0.41014
USER: genes 11 Torsion [C]-N--CA-[CB] |==|  0.18549
USER: genes 12 Torsion [N]-CA--C-[N] |==|  0.10150
USER: genes 13 Torsion [C]-N--CA-[C] |==|  0.75726
USER: genes 14 Torsion [N]-CA--C-[O] |==|  0.98581
ROOT
ATOM      1  CA  ALA E  11       1.914  21.903   2.434  1.00 85.35 LIG 0.17  C 
ATOM      2  CB  ALA E  11       1.624  21.223   3.773  1.00 80.46 LIG 0.04  C 
ENDROOT
BRANCH 1 3
ATOM      3  N   ALA E  11       3.130  22.702   2.529  1.00 87.15 LIG-0.35  N 
ATOM      4  C   ALA E  10       4.276  22.143   2.928  1.00 62.15 LIG 0.24  C 
ATOM      5 O    ALA E  10       4.413  20.924   3.033  1.00 65.72 LIG-0.27  OA
ATOM      6 H    ALA E  11       3.040  23.530   2.312  1.00 87.15 LIG 0.16  HD
BRANCH 4 7
ATOM      7  CA  ALA E  10       5.438  23.075   3.253  1.00 66.45 LIG 0.17  C 
ATOM      8  CB  ALA E  10       6.765  22.324   3.156  1.00 58.63 LIG 0.04  C 
BRANCH 7 9
ATOM      9  N   ALA E  10       5.305  23.670   4.574  1.00 75.43 LIG-0.35  N 
ATOM     10  C   ALA E   9       5.208  22.948   5.689  1.00 82.21 LIG 0.24  C 
ATOM     11 O    ALA E   9       5.188  21.713   5.700  1.00 73.75 LIG-0.27  OA
ATOM     12 H    ALA E  10       5.294  24.531   4.568  1.00 75.43 LIG 0.16  HD
BRANCH 10 13
ATOM     13  CA  ALA E   9       5.089  23.735   6.987  1.00 87.65 LIG 0.17  C 
ATOM     14  CB  ALA E   9       5.480  22.875   8.187  1.00 72.21 LIG 0.04  C 
BRANCH 13 15
ATOM     15  N   ALA E   9       3.716  24.211   7.098  1.00 84.24 LIG-0.35  N 
ATOM     16 H    ALA E   9       3.191  23.676   7.521  1.00 84.24 LIG 0.16  HD
ATOM     17  C   ALA E   8       3.324  25.370   6.587  1.00 61.40 LIG 0.26  C 
ATOM     18 O    ALA E   8       4.106  26.165   6.069  1.00 66.21 LIG-0.27  OA
BRANCH 17 19
ATOM     19  CA  ALA E   8       1.838  25.692   6.702  1.00 67.03 LIG 0.40  C 
ATOM     20  N   ALA E   8       1.463  26.793   5.765  1.00 60.26 LIG 0.61  N 
ATOM     21  CB  ALA E   8       0.996  24.451   6.427  1.00 64.64 LIG 0.06  C 
ENDBRANCH 17 19
ENDBRANCH 13 15
ENDBRANCH 10 13
ENDBRANCH 7 9
ENDBRANCH 4 7
ENDBRANCH 1 3
BRANCH 1 22
ATOM     22  C   ALA E  11       0.722  22.750   2.004  1.00 81.78 LIG 0.24  C 
ATOM     23  N   ALA E  12       0.683  24.014   2.421  1.00 82.91 LIG-0.35  N 
ATOM     24 H    ALA E  12       1.330  24.418   2.819  1.00 82.91 LIG 0.16  HD
ATOM     25 O    ALA E  11      -0.176  22.264   1.304  1.00 89.30 LIG-0.27  OA
BRANCH 23 26
ATOM     26  CA  ALA E  12      -0.513  24.818   2.213  1.00 61.10 LIG 0.17  C 
ATOM     27  CB  ALA E  12      -0.894  24.855   0.726  1.00 65.27 LIG 0.04  C 
BRANCH 26 28
ATOM     28  C   ALA E  12      -1.667  24.281   3.044  1.00 54.59 LIG 0.24  C 
ATOM     29  N   ALA E  13      -2.524  25.207   3.475  1.00 64.78 LIG-0.35  N 
ATOM     30 H    ALA E  13      -2.479  26.038   3.257  1.00 64.78 LIG 0.16  HD
ATOM     31 O    ALA E  12      -1.800  23.072   3.255  1.00 69.11 LIG-0.27  OA
BRANCH 29 32
ATOM     32  CA  ALA E  13      -3.625  24.883   4.368  1.00 54.23 LIG 0.17  C 
ATOM     33  CB  ALA E  13      -3.084  24.455   5.732  1.00 56.27 LIG 0.04  C 
BRANCH 32 34
ATOM     34  C   ALA E  13      -4.567  26.055   4.574  1.00 65.29 LIG 0.24  C 
ATOM     35  N   ALA E  14      -4.766  26.818   3.505  1.00 85.74 LIG-0.35  N 
ATOM     36 H    ALA E  14      -4.368  26.693   2.753  1.00 85.74 LIG 0.16  HD
ATOM     37 O    ALA E  13      -5.146  26.232   5.649  1.00 75.52 LIG-0.27  OA
BRANCH 35 38
ATOM     38  CA  ALA E  14      -5.682  27.945   3.507  1.00 94.46 LIG 0.16  C 
ATOM     39  CB  ALA E  14      -5.209  29.001   2.535  1.00106.12 LIG 0.04  C 
BRANCH 38 40
ATOM     40  C   ALA E  14      -7.090  27.482   3.152  1.00 99.07 LIG 0.22  C 
ATOM     41 O    ALA E  14      -7.307  26.317   2.822  1.00120.33 LIG-0.29  OA
ENDBRANCH 38 40
ENDBRANCH 35 38
ENDBRANCH 32 34
ENDBRANCH 29 32
ENDBRANCH 26 28
ENDBRANCH 23 26
ENDBRANCH 1 22
TORSDOF 13
ENDMDL
MODEL 181
USER: ADFR SOLUTION from run 166
USER: SCORE 4.651226 LL:  -2.773 LR:  -3.706 RR:   0.000 FEB:   0.172
USER: RMSD 5.848593
USER: SEED 165
USER: STATUS no improvement in best in 98 clusters for 5 generations
USER: GENES 15
USER: genes 0 Translation |==|  0.63927 0.40411 0.56886
USER: genes 1 Rotation |==|  0.73669 0.60638 0.42044 0.91992
USER: genes 2 Torsion [CB]-CA--N-[C] |==|  0.15398
USER: genes 3 Torsion [N]-C--CA-[N] |==|  0.22064
USER: genes 4 Torsion [C]-CA--N-[C] |==|  0.16110
USER: genes 5 Torsion [N]-C--CA-[N] |==|  0.21624
USER: genes 6 Torsion [C]-CA--N-[C] |==|  0.75368
USER: genes 7 Torsion [N]-C--CA-[N] |==|  0.40648
USER: genes 8 Torsion [N]-CA--C-[N] |==|  0.00919
USER: genes 9 Torsion [C]-N--CA-[CB] |==|  0.84437
USER: genes 10 Torsion [N]-CA--C-[N] |==|  0.41245
USER: genes 11 Torsion [C]-N--CA-[CB] |==|  0.52832
USER: genes 12 Torsion [N]-CA--C-[N] |==|  0.42567
USER: genes 13 Torsion [C]-N--CA-[C] |==|  0.73729
USER: genes 14 Torsion [N]-CA--C-[O] |==|  0.04093
ROOT
ATOM      1  CA  ALA E  11       1.914  21.903   2.434  1.00 85.35 LIG 0.17  C 
ATOM      2  CB  ALA E  11       1.624  21.223   3.773  1.00 80.46 LIG 0.04  C 
ENDROOT
BRANCH 1 3
ATOM      3  N   ALA E  11       3.130  22.702   2.529  1.00 87.15 LIG-0.35  N 
ATOM      4  C   ALA E  10       4.276  22.143   2.928  1.00 62.15 LIG 0.24  C 
ATOM      5 O    ALA E  10       4.413  20.924   3.033  1.00 65.72 LIG-0.27  OA
ATOM      6 H    ALA E  11       3.040  23.530   2.312  1.00 87.15 LIG 0.16  HD
BRANCH 4 7
ATOM      7  CA  ALA E  10       5.438  23.075   3.253  1.00 66.45 LIG 0.17  C 
ATOM      8  CB  ALA E  10       6.765  22.324   3.156  1.00 58.63 LIG 0.04  C 
BRANCH 7 9
ATOM      9  N   ALA E  10       5.305  23.671   4.574  1.00 75.43 LIG-0.35  N 
ATOM     10  C   ALA E   9       5.208  22.949   5.689  1.00 82.21 LIG 0.24  C 
ATOM     11 O    ALA E   9       5.188  21.713   5.700  1.00 73.75 LIG-0.27  OA
ATOM     12 H    ALA E  10       5.294  24.531   4.568  1.00 75.43 LIG 0.16  HD
BRANCH 10 13
ATOM     13  CA  ALA E   9       5.089  23.735   6.987  1.00 87.65 LIG 0.17  C 
ATOM     14  CB  ALA E   9       5.480  22.875   8.187  1.00 72.21 LIG 0.04  C 
BRANCH 13 15
ATOM     15  N   ALA E   9       3.716  24.211   7.098  1.00 84.24 LIG-0.35  N 
ATOM     16 H    ALA E   9       3.191  23.676   7.521  1.00 84.24 LIG 0.16  HD
ATOM     17  C   ALA E   8       3.324  25.370   6.587  1.00 61.40 LIG 0.26  C 
ATOM     18 O    ALA E   8       4.106  26.165   6.069  1.00 66.21 LIG-0.27  OA
BRANCH 17 19
ATOM     19  CA  ALA E   8       1.837  25.692   6.702  1.00 67.03 LIG 0.40  C 
ATOM     20  N   ALA E   8       1.629  27.160   6.881  1.00 60.26 LIG 0.61  N 
ATOM     21  CB  ALA E   8       1.083  25.193   5.475  1.00 64.64 LIG 0.06  C 
ENDBRANCH 17 19
ENDBRANCH 13 15
ENDBRANCH 10 13
ENDBRANCH 7 9
ENDBRANCH 4 7
ENDBRANCH 1 3
BRANCH 1 22
ATOM     22  C   ALA E  11       0.722  22.750   2.004  1.00 81.78 LIG 0.24  C 
ATOM     23  N   ALA E  12       0.949  24.030   1.717  1.00 82.91 LIG-0.35  N 
ATOM     24 H    ALA E  12       1.729  24.386   1.649  1.00 82.91 LIG 0.16  HD
ATOM     25 O    ALA E  11      -0.411  22.256   1.940  1.00 89.30 LIG-0.27  OA
BRANCH 23 26
ATOM     26  CA  ALA E  12      -0.166  24.939   1.490  1.00 61.10 LIG 0.17  C 
ATOM     27  CB  ALA E  12      -1.079  24.414   0.372  1.00 65.27 LIG 0.04  C 
BRANCH 26 28
ATOM     28  C   ALA E  12      -0.958  25.141   2.772  1.00 54.59 LIG 0.24  C 
ATOM     29  N   ALA E  13      -1.522  26.343   2.898  1.00 64.78 LIG-0.35  N 
ATOM     30 H    ALA E  13      -1.504  26.945   2.284  1.00 64.78 LIG 0.16  HD
ATOM     31 O    ALA E  12      -1.087  24.234   3.599  1.00 69.11 LIG-0.27  OA
BRANCH 29 32
ATOM     32  CA  ALA E  13      -2.227  26.742   4.105  1.00 54.23 LIG 0.17  C 
ATOM     33  CB  ALA E  13      -2.973  28.054   3.864  1.00 56.27 LIG 0.04  C 
BRANCH 32 34
ATOM     34  C   ALA E  13      -3.231  25.698   4.561  1.00 65.29 LIG 0.24  C 
ATOM     35  N   ALA E  14      -3.494  25.695   5.863  1.00 85.74 LIG-0.35  N 
ATOM     36 H    ALA E  14      -3.105  26.214   6.426  1.00 85.74 LIG 0.16  HD
ATOM     37 O    ALA E  13      -3.798  24.957   3.754  1.00 75.52 LIG-0.27  OA
BRANCH 35 38
ATOM     38  CA  ALA E  14      -4.473  24.805   6.461  1.00 94.46 LIG 0.16  C 
ATOM     39  CB  ALA E  14      -3.995  24.342   7.818  1.00106.12 LIG 0.04  C 
BRANCH 38 40
ATOM     40  C   ALA E  14      -5.822  25.505   6.579  1.00 99.07 LIG 0.22  C 
ATOM     41 O    ALA E  14      -6.048  26.547   5.964  1.00120.33 LIG-0.29  OA
ENDBRANCH 38 40
ENDBRANCH 35 38
ENDBRANCH 32 34
ENDBRANCH 29 32
ENDBRANCH 26 28
ENDBRANCH 23 26
ENDBRANCH 1 22
TORSDOF 13
ENDMDL
MODEL 182
USER: ADFR SOLUTION from run 179
USER: SCORE 5.317945 LL:  -2.556 LR:  -3.715 RR:   0.000 FEB:   0.163
USER: RMSD 4.281932
USER: SEED 178
USER: STATUS no improvement in best in 84 clusters for 5 generations
USER: GENES 15
USER: genes 0 Translation |==|  0.66331 0.32818 0.57892
USER: genes 1 Rotation |==|  0.73448 0.67070 0.56388 0.90224
USER: genes 2 Torsion [CB]-CA--N-[C] |==|  0.14469
USER: genes 3 Torsion [N]-C--CA-[N] |==|  0.08385
USER: genes 4 Torsion [C]-CA--N-[C] |==|  0.21098
USER: genes 5 Torsion [N]-C--CA-[N] |==|  0.90577
USER: genes 6 Torsion [C]-CA--N-[C] |==|  0.83969
USER: genes 7 Torsion [N]-C--CA-[N] |==|  0.26655
USER: genes 8 Torsion [N]-CA--C-[N] |==|  0.13735
USER: genes 9 Torsion [C]-N--CA-[CB] |==|  0.17404
USER: genes 10 Torsion [N]-CA--C-[N] |==|  0.06714
USER: genes 11 Torsion [C]-N--CA-[CB] |==|  0.83292
USER: genes 12 Torsion [N]-CA--C-[N] |==|  0.41673
USER: genes 13 Torsion [C]-N--CA-[C] |==|  0.76964
USER: genes 14 Torsion [N]-CA--C-[O] |==|  0.98083
ROOT
ATOM      1  CA  ALA E  11       2.454  20.536   2.615  1.00 85.35 LIG 0.17  C 
ATOM      2  CB  ALA E  11       2.629  19.570   3.788  1.00 80.46 LIG 0.04  C 
ENDROOT
BRANCH 1 3
ATOM      3  N   ALA E  11       3.003  21.844   2.956  1.00 87.15 LIG-0.35  N 
ATOM      4  C   ALA E  10       4.249  21.953   3.424  1.00 62.15 LIG 0.24  C 
ATOM      5 O    ALA E  10       5.047  21.015   3.398  1.00 65.72 LIG-0.27  OA
ATOM      6 H    ALA E  11       2.469  22.507   2.831  1.00 87.15 LIG 0.16  HD
BRANCH 4 7
ATOM      7  CA  ALA E  10       4.670  23.300   4.001  1.00 66.45 LIG 0.17  C 
ATOM      8  CB  ALA E  10       5.767  23.110   5.047  1.00 58.63 LIG 0.04  C 
BRANCH 7 9
ATOM      9  N   ALA E  10       3.547  24.014   4.589  1.00 75.43 LIG-0.35  N 
ATOM     10  C   ALA E   9       3.022  23.695   5.770  1.00 82.21 LIG 0.24  C 
ATOM     11 O    ALA E   9       3.417  22.746   6.457  1.00 73.75 LIG-0.27  OA
ATOM     12 H    ALA E  10       3.254  24.661   4.103  1.00 75.43 LIG 0.16  HD
BRANCH 10 13
ATOM     13  CA  ALA E   9       1.859  24.557   6.242  1.00 87.65 LIG 0.17  C 
ATOM     14  CB  ALA E   9       0.528  24.006   5.735  1.00 72.21 LIG 0.04  C 
BRANCH 13 15
ATOM     15  N   ALA E   9       2.088  25.916   5.768  1.00 84.24 LIG-0.35  N 
ATOM     16 H    ALA E   9       1.456  26.228   5.275  1.00 84.24 LIG 0.16  HD
ATOM     17  C   ALA E   8       3.181  26.600   6.078  1.00 61.40 LIG 0.26  C 
ATOM     18 O    ALA E   8       4.030  26.176   6.859  1.00 66.21 LIG-0.27  OA
BRANCH 17 19
ATOM     19  CA  ALA E   8       3.323  27.975   5.435  1.00 67.03 LIG 0.40  C 
ATOM     20  N   ALA E   8       2.835  29.042   6.359  1.00 60.26 LIG 0.61  N 
ATOM     21  CB  ALA E   8       4.772  28.237   5.040  1.00 64.64 LIG 0.06  C 
ENDBRANCH 17 19
ENDBRANCH 13 15
ENDBRANCH 10 13
ENDBRANCH 7 9
ENDBRANCH 4 7
ENDBRANCH 1 3
BRANCH 1 22
ATOM     22  C   ALA E  11       0.985  20.632   2.224  1.00 81.78 LIG 0.24  C 
ATOM     23  N   ALA E  12       0.646  21.554   1.325  1.00 82.91 LIG-0.35  N 
ATOM     24 H    ALA E  12       1.206  22.022   0.869  1.00 82.91 LIG 0.16  HD
ATOM     25 O    ALA E  11       0.146  19.883   2.740  1.00 89.30 LIG-0.27  OA
BRANCH 23 26
ATOM     26  CA  ALA E  12      -0.757  21.832   1.052  1.00 61.10 LIG 0.17  C 
ATOM     27  CB  ALA E  12      -1.460  22.370   2.307  1.00 65.27 LIG 0.04  C 
BRANCH 26 28
ATOM     28  C   ALA E  12      -0.892  22.818  -0.097  1.00 54.59 LIG 0.24  C 
ATOM     29  N   ALA E  13       0.146  22.847  -0.933  1.00 64.78 LIG-0.35  N 
ATOM     30 H    ALA E  13       0.818  22.313  -0.880  1.00 64.78 LIG 0.16  HD
ATOM     31 O    ALA E  12      -1.910  23.499  -0.245  1.00 69.11 LIG-0.27  OA
BRANCH 29 32
ATOM     32  CA  ALA E  13       0.231  23.804  -2.025  1.00 54.23 LIG 0.17  C 
ATOM     33  CB  ALA E  13      -0.952  23.616  -2.976  1.00 56.27 LIG 0.04  C 
BRANCH 32 34
ATOM     34  C   ALA E  13       0.228  25.241  -1.537  1.00 65.29 LIG 0.24  C 
ATOM     35  N   ALA E  14       0.892  26.101  -2.302  1.00 85.74 LIG-0.35  N 
ATOM     36 H    ALA E  14       1.329  25.870  -3.005  1.00 85.74 LIG 0.16  HD
ATOM     37 O    ALA E  13      -0.404  25.577  -0.533  1.00 75.52 LIG-0.27  OA
BRANCH 35 38
ATOM     38  CA  ALA E  14       0.942  27.523  -2.018  1.00 94.46 LIG 0.16  C 
ATOM     39  CB  ALA E  14       2.190  28.130  -2.618  1.00106.12 LIG 0.04  C 
BRANCH 38 40
ATOM     40  C   ALA E  14      -0.303  28.216  -2.559  1.00 99.07 LIG 0.22  C 
ATOM     41 O    ALA E  14      -1.115  27.602  -3.251  1.00120.33 LIG-0.29  OA
ENDBRANCH 38 40
ENDBRANCH 35 38
ENDBRANCH 32 34
ENDBRANCH 29 32
ENDBRANCH 26 28
ENDBRANCH 23 26
ENDBRANCH 1 22
TORSDOF 13
ENDMDL
MODEL 183
USER: ADFR SOLUTION from run 153
USER: SCORE 4.418950 LL:  -2.912 LR:  -3.702 RR:   0.000 FEB:   0.176
USER: RMSD 4.471269
USER: SEED 152
USER: STATUS no improvement in best in 49 clusters for 5 generations
USER: GENES 15
USER: genes 0 Translation |==|  0.52923 0.42226 0.68380
USER: genes 1 Rotation |==|  0.54882 0.41671 0.49261 0.99053
USER: genes 2 Torsion [CB]-CA--N-[C] |==|  0.41904
USER: genes 3 Torsion [N]-C--CA-[N] |==|  0.45505
USER: genes 4 Torsion [C]-CA--N-[C] |==|  0.78657
USER: genes 5 Torsion [N]-C--CA-[N] |==|  0.03194
USER: genes 6 Torsion [C]-CA--N-[C] |==|  0.76008
USER: genes 7 Torsion [N]-C--CA-[N] |==|  0.59532
USER: genes 8 Torsion [N]-CA--C-[N] |==|  0.91868
USER: genes 9 Torsion [C]-N--CA-[CB] |==|  0.84845
USER: genes 10 Torsion [N]-CA--C-[N] |==|  0.39042
USER: genes 11 Torsion [C]-N--CA-[CB] |==|  0.82061
USER: genes 12 Torsion [N]-CA--C-[N] |==|  0.00556
USER: genes 13 Torsion [C]-N--CA-[C] |==|  0.56097
USER: genes 14 Torsion [N]-CA--C-[O] |==|  0.94238
ROOT
ATOM      1  CA  ALA E  11      -0.562  22.230   4.502  1.00 85.35 LIG 0.17  C 
ATOM      2  CB  ALA E  11      -1.776  22.559   5.373  1.00 80.46 LIG 0.04  C 
ENDROOT
BRANCH 1 3
ATOM      3  N   ALA E  11       0.455  23.265   4.648  1.00 87.15 LIG-0.35  N 
ATOM      4  C   ALA E  10       1.748  22.968   4.495  1.00 62.15 LIG 0.24  C 
ATOM      5 O    ALA E  10       2.126  21.890   4.033  1.00 65.72 LIG-0.27  OA
ATOM      6 H    ALA E  11       0.153  24.049   4.834  1.00 87.15 LIG 0.16  HD
BRANCH 4 7
ATOM      7  CA  ALA E  10       2.767  24.023   4.911  1.00 66.45 LIG 0.17  C 
ATOM      8  CB  ALA E  10       2.792  25.166   3.897  1.00 58.63 LIG 0.04  C 
BRANCH 7 9
ATOM      9  N   ALA E  10       4.103  23.463   5.054  1.00 75.43 LIG-0.35  N 
ATOM     10  C   ALA E   9       4.476  22.738   6.107  1.00 82.21 LIG 0.24  C 
ATOM     11 O    ALA E   9       3.737  22.504   7.070  1.00 73.75 LIG-0.27  OA
ATOM     12 H    ALA E  10       4.627  23.643   4.397  1.00 75.43 LIG 0.16  HD
BRANCH 10 13
ATOM     13  CA  ALA E   9       5.907  22.218   6.088  1.00 87.65 LIG 0.17  C 
ATOM     14  CB  ALA E   9       6.593  22.450   7.432  1.00 72.21 LIG 0.04  C 
BRANCH 13 15
ATOM     15  N   ALA E   9       6.614  22.891   5.006  1.00 84.24 LIG-0.35  N 
ATOM     16 H    ALA E   9       7.039  23.598   5.249  1.00 84.24 LIG 0.16  HD
ATOM     17  C   ALA E   8       6.594  22.441   3.758  1.00 61.40 LIG 0.26  C 
ATOM     18 O    ALA E   8       6.060  21.379   3.444  1.00 66.21 LIG-0.27  OA
BRANCH 17 19
ATOM     19  CA  ALA E   8       7.304  23.301   2.718  1.00 67.03 LIG 0.40  C 
ATOM     20  N   ALA E   8       6.595  23.234   1.405  1.00 60.26 LIG 0.61  N 
ATOM     21  CB  ALA E   8       7.406  24.746   3.193  1.00 64.64 LIG 0.06  C 
ENDBRANCH 17 19
ENDBRANCH 13 15
ENDBRANCH 10 13
ENDBRANCH 7 9
ENDBRANCH 4 7
ENDBRANCH 1 3
BRANCH 1 22
ATOM     22  C   ALA E  11      -0.986  22.064   3.048  1.00 81.78 LIG 0.24  C 
ATOM     23  N   ALA E  12      -0.911  23.135   2.260  1.00 82.91 LIG-0.35  N 
ATOM     24 H    ALA E  12      -0.540  23.879   2.479  1.00 82.91 LIG 0.16  HD
ATOM     25 O    ALA E  11      -1.394  20.973   2.632  1.00 89.30 LIG-0.27  OA
BRANCH 23 26
ATOM     26  CA  ALA E  12      -1.481  23.100   0.920  1.00 61.10 LIG 0.17  C 
ATOM     27  CB  ALA E  12      -0.916  21.916   0.119  1.00 65.27 LIG 0.04  C 
BRANCH 26 28
ATOM     28  C   ALA E  12      -2.997  23.021   0.987  1.00 54.59 LIG 0.24  C 
ATOM     29  N   ALA E  13      -3.636  23.754   0.074  1.00 64.78 LIG-0.35  N 
ATOM     30 H    ALA E  13      -3.238  24.191  -0.551  1.00 64.78 LIG 0.16  HD
ATOM     31 O    ALA E  12      -3.568  22.296   1.806  1.00 69.11 LIG-0.27  OA
BRANCH 29 32
ATOM     32  CA  ALA E  13      -5.084  23.877   0.060  1.00 54.23 LIG 0.17  C 
ATOM     33  CB  ALA E  13      -5.721  22.517  -0.228  1.00 56.27 LIG 0.04  C 
BRANCH 32 34
ATOM     34  C   ALA E  13      -5.635  24.393   1.378  1.00 65.29 LIG 0.24  C 
ATOM     35  N   ALA E  14      -4.722  24.683   2.298  1.00 85.74 LIG-0.35  N 
ATOM     36 H    ALA E  14      -3.879  24.558   2.186  1.00 85.74 LIG 0.16  HD
ATOM     37 O    ALA E  13      -6.843  24.581   1.539  1.00 75.52 LIG-0.27  OA
BRANCH 35 38
ATOM     38  CA  ALA E  14      -5.068  25.244   3.592  1.00 94.46 LIG 0.16  C 
ATOM     39  CB  ALA E  14      -5.560  24.153   4.517  1.00106.12 LIG 0.04  C 
BRANCH 38 40
ATOM     40  C   ALA E  14      -3.866  25.958   4.199  1.00 99.07 LIG 0.22  C 
ATOM     41 O    ALA E  14      -2.723  25.699   3.822  1.00120.33 LIG-0.29  OA
ENDBRANCH 38 40
ENDBRANCH 35 38
ENDBRANCH 32 34
ENDBRANCH 29 32
ENDBRANCH 26 28
ENDBRANCH 23 26
ENDBRANCH 1 22
TORSDOF 13
ENDMDL
MODEL 184
USER: ADFR SOLUTION from run 195
USER: SCORE 4.085403 LL:  -2.498 LR:  -3.697 RR:   0.000 FEB:   0.181
USER: RMSD 4.207612
USER: SEED 194
USER: STATUS no improvement in best in 70 clusters for 5 generations
USER: GENES 15
USER: genes 0 Translation |==|  0.55552 0.42118 0.59303
USER: genes 1 Rotation |==|  0.83606 0.59026 0.47502 0.85818
USER: genes 2 Torsion [CB]-CA--N-[C] |==|  0.82687
USER: genes 3 Torsion [N]-C--CA-[N] |==|  0.86918
USER: genes 4 Torsion [C]-CA--N-[C] |==|  0.73559
USER: genes 5 Torsion [N]-C--CA-[N] |==|  0.07154
USER: genes 6 Torsion [C]-CA--N-[C] |==|  0.70322
USER: genes 7 Torsion [N]-C--CA-[N] |==|  0.93203
USER: genes 8 Torsion [N]-CA--C-[N] |==|  0.08373
USER: genes 9 Torsion [C]-N--CA-[CB] |==|  0.50556
USER: genes 10 Torsion [N]-CA--C-[N] |==|  0.38481
USER: genes 11 Torsion [C]-N--CA-[CB] |==|  0.52232
USER: genes 12 Torsion [N]-CA--C-[N] |==|  0.43334
USER: genes 13 Torsion [C]-N--CA-[C] |==|  0.53810
USER: genes 14 Torsion [N]-CA--C-[O] |==|  0.98668
ROOT
ATOM      1  CA  ALA E  11       0.029  22.210   2.868  1.00 85.35 LIG 0.17  C 
ATOM      2  CB  ALA E  11      -0.417  20.981   3.663  1.00 80.46 LIG 0.04  C 
ENDROOT
BRANCH 1 3
ATOM      3  N   ALA E  11       1.158  22.854   3.531  1.00 87.15 LIG-0.35  N 
ATOM      4  C   ALA E  10       1.021  23.361   4.759  1.00 62.15 LIG 0.24  C 
ATOM      5 O    ALA E  10       0.032  23.138   5.457  1.00 65.72 LIG-0.27  OA
ATOM      6 H    ALA E  11       1.887  22.872   3.074  1.00 87.15 LIG 0.16  HD
BRANCH 4 7
ATOM      7  CA  ALA E  10       2.150  24.240   5.288  1.00 66.45 LIG 0.17  C 
ATOM      8  CB  ALA E  10       2.100  25.619   4.632  1.00 58.63 LIG 0.04  C 
BRANCH 7 9
ATOM      9  N   ALA E  10       3.457  23.638   5.069  1.00 75.43 LIG-0.35  N 
ATOM     10  C   ALA E   9       4.084  22.911   5.991  1.00 82.21 LIG 0.24  C 
ATOM     11 O    ALA E   9       3.631  22.710   7.124  1.00 73.75 LIG-0.27  OA
ATOM     12 H    ALA E  10       3.785  23.796   4.290  1.00 75.43 LIG 0.16  HD
BRANCH 10 13
ATOM     13  CA  ALA E   9       5.439  22.345   5.589  1.00 87.65 LIG 0.17  C 
ATOM     14  CB  ALA E   9       6.371  22.245   6.795  1.00 72.21 LIG 0.04  C 
BRANCH 13 15
ATOM     15  N   ALA E   9       5.996  23.207   4.554  1.00 84.24 LIG-0.35  N 
ATOM     16 H    ALA E   9       6.277  23.967   4.844  1.00 84.24 LIG 0.16  HD
ATOM     17  C   ALA E   8       6.056  22.839   3.282  1.00 61.40 LIG 0.26  C 
ATOM     18 O    ALA E   8       5.737  21.715   2.900  1.00 66.21 LIG-0.27  OA
BRANCH 17 19
ATOM     19  CA  ALA E   8       6.581  23.882   2.301  1.00 67.03 LIG 0.40  C 
ATOM     20  N   ALA E   8       6.374  25.261   2.837  1.00 60.26 LIG 0.61  N 
ATOM     21  CB  ALA E   8       8.057  23.644   2.001  1.00 64.64 LIG 0.06  C 
ENDBRANCH 17 19
ENDBRANCH 13 15
ENDBRANCH 10 13
ENDBRANCH 7 9
ENDBRANCH 4 7
ENDBRANCH 1 3
BRANCH 1 22
ATOM     22  C   ALA E  11      -1.137  23.175   2.690  1.00 81.78 LIG 0.24  C 
ATOM     23  N   ALA E  12      -0.849  24.467   2.542  1.00 82.91 LIG-0.35  N 
ATOM     24 H    ALA E  12      -0.056  24.782   2.429  1.00 82.91 LIG 0.16  HD
ATOM     25 O    ALA E  11      -2.303  22.761   2.697  1.00 89.30 LIG-0.27  OA
BRANCH 23 26
ATOM     26  CA  ALA E  12      -1.913  25.462   2.563  1.00 61.10 LIG 0.17  C 
ATOM     27  CB  ALA E  12      -1.346  26.870   2.324  1.00 65.27 LIG 0.04  C 
BRANCH 26 28
ATOM     28  C   ALA E  12      -2.972  25.132   1.523  1.00 54.59 LIG 0.24  C 
ATOM     29  N   ALA E  13      -4.228  25.310   1.930  1.00 64.78 LIG-0.35  N 
ATOM     30 H    ALA E  13      -4.441  25.646   2.693  1.00 64.78 LIG 0.16  HD
ATOM     31 O    ALA E  12      -2.664  24.767   0.385  1.00 69.11 LIG-0.27  OA
BRANCH 29 32
ATOM     32  CA  ALA E  13      -5.366  24.945   1.102  1.00 54.23 LIG 0.17  C 
ATOM     33  CB  ALA E  13      -6.661  25.446   1.743  1.00 56.27 LIG 0.04  C 
BRANCH 32 34
ATOM     34  C   ALA E  13      -5.273  25.524  -0.299  1.00 65.29 LIG 0.24  C 
ATOM     35  N   ALA E  14      -5.958  24.869  -1.230  1.00 85.74 LIG-0.35  N 
ATOM     36 H    ALA E  14      -6.397  24.147  -1.075  1.00 85.74 LIG 0.16  HD
ATOM     37 O    ALA E  13      -4.650  26.565  -0.523  1.00 75.52 LIG-0.27  OA
BRANCH 35 38
ATOM     38  CA  ALA E  14      -6.028  25.318  -2.609  1.00 94.46 LIG 0.16  C 
ATOM     39  CB  ALA E  14      -4.697  25.105  -3.293  1.00106.12 LIG 0.04  C 
BRANCH 38 40
ATOM     40  C   ALA E  14      -7.136  24.579  -3.350  1.00 99.07 LIG 0.22  C 
ATOM     41 O    ALA E  14      -7.766  23.674  -2.803  1.00120.33 LIG-0.29  OA
ENDBRANCH 38 40
ENDBRANCH 35 38
ENDBRANCH 32 34
ENDBRANCH 29 32
ENDBRANCH 26 28
ENDBRANCH 23 26
ENDBRANCH 1 22
TORSDOF 13
ENDMDL
MODEL 185
USER: ADFR SOLUTION from run 112
USER: SCORE 4.730949 LL:  -2.631 LR:  -3.704 RR:   0.000 FEB:   0.174
USER: RMSD 3.896087
USER: SEED 111
USER: STATUS no improvement in best in 22 clusters for 5 generations
USER: GENES 15
USER: genes 0 Translation |==|  0.64515 0.33829 0.58450
USER: genes 1 Rotation |==|  0.75310 0.69060 0.52842 0.88575
USER: genes 2 Torsion [CB]-CA--N-[C] |==|  0.12194
USER: genes 3 Torsion [N]-C--CA-[N] |==|  0.09967
USER: genes 4 Torsion [C]-CA--N-[C] |==|  0.19253
USER: genes 5 Torsion [N]-C--CA-[N] |==|  0.97978
USER: genes 6 Torsion [C]-CA--N-[C] |==|  0.78793
USER: genes 7 Torsion [N]-C--CA-[N] |==|  0.31434
USER: genes 8 Torsion [N]-CA--C-[N] |==|  0.11543
USER: genes 9 Torsion [C]-N--CA-[CB] |==|  0.18856
USER: genes 10 Torsion [N]-CA--C-[N] |==|  0.57776
USER: genes 11 Torsion [C]-N--CA-[CB] |==|  0.16842
USER: genes 12 Torsion [N]-CA--C-[N] |==|  0.08801
USER: genes 13 Torsion [C]-N--CA-[C] |==|  0.64997
USER: genes 14 Torsion [N]-CA--C-[O] |==|  0.97699
ROOT
ATOM      1  CA  ALA E  11       2.046  20.718   2.715  1.00 85.35 LIG 0.17  C 
ATOM      2  CB  ALA E  11       2.312  19.694   3.820  1.00 80.46 LIG 0.04  C 
ENDROOT
BRANCH 1 3
ATOM      3  N   ALA E  11       2.765  21.956   2.994  1.00 87.15 LIG-0.35  N 
ATOM      4  C   ALA E  10       4.033  21.922   3.413  1.00 62.15 LIG 0.24  C 
ATOM      5 O    ALA E  10       4.707  20.891   3.389  1.00 65.72 LIG-0.27  OA
ATOM      6 H    ALA E  11       2.313  22.677   2.867  1.00 87.15 LIG 0.16  HD
BRANCH 4 7
ATOM      7  CA  ALA E  10       4.639  23.221   3.931  1.00 66.45 LIG 0.17  C 
ATOM      8  CB  ALA E  10       5.836  22.926   4.833  1.00 58.63 LIG 0.04  C 
BRANCH 7 9
ATOM      9  N   ALA E  10       3.665  24.027   4.653  1.00 75.43 LIG-0.35  N 
ATOM     10  C   ALA E   9       3.169  23.676   5.837  1.00 82.21 LIG 0.24  C 
ATOM     11 O    ALA E   9       3.462  22.622   6.414  1.00 73.75 LIG-0.27  OA
ATOM     12 H    ALA E  10       3.440  24.749   4.243  1.00 75.43 LIG 0.16  HD
BRANCH 10 13
ATOM     13  CA  ALA E   9       2.169  24.643   6.457  1.00 87.65 LIG 0.17  C 
ATOM     14  CB  ALA E   9       0.787  24.005   6.570  1.00 72.21 LIG 0.04  C 
BRANCH 13 15
ATOM     15  N   ALA E   9       2.136  25.843   5.631  1.00 84.24 LIG-0.35  N 
ATOM     16 H    ALA E   9       1.444  25.902   5.123  1.00 84.24 LIG 0.16  HD
ATOM     17  C   ALA E   8       3.096  26.757   5.670  1.00 61.40 LIG 0.26  C 
ATOM     18 O    ALA E   8       4.030  26.705   6.468  1.00 66.21 LIG-0.27  OA
BRANCH 17 19
ATOM     19  CA  ALA E   8       2.970  27.913   4.683  1.00 67.03 LIG 0.40  C 
ATOM     20  N   ALA E   8       2.722  29.197   5.405  1.00 60.26 LIG 0.61  N 
ATOM     21  CB  ALA E   8       4.222  28.022   3.820  1.00 64.64 LIG 0.06  C 
ENDBRANCH 17 19
ENDBRANCH 13 15
ENDBRANCH 10 13
ENDBRANCH 7 9
ENDBRANCH 4 7
ENDBRANCH 1 3
BRANCH 1 22
ATOM     22  C   ALA E  11       0.549  20.962   2.572  1.00 81.78 LIG 0.24  C 
ATOM     23  N   ALA E  12       0.164  22.042   1.894  1.00 82.91 LIG-0.35  N 
ATOM     24 H    ALA E  12       0.690  22.549   1.440  1.00 82.91 LIG 0.16  HD
ATOM     25 O    ALA E  11      -0.267  20.185   3.082  1.00 89.30 LIG-0.27  OA
BRANCH 23 26
ATOM     26  CA  ALA E  12      -1.237  22.441   1.885  1.00 61.10 LIG 0.17  C 
ATOM     27  CB  ALA E  12      -1.676  22.920   3.277  1.00 65.27 LIG 0.04  C 
BRANCH 26 28
ATOM     28  C   ALA E  12      -1.475  23.529   0.850  1.00 54.59 LIG 0.24  C 
ATOM     29  N   ALA E  13      -2.487  24.351   1.126  1.00 64.78 LIG-0.35  N 
ATOM     30 H    ALA E  13      -2.938  24.325   1.858  1.00 64.78 LIG 0.16  HD
ATOM     31 O    ALA E  12      -0.749  23.643  -0.142  1.00 69.11 LIG-0.27  OA
BRANCH 29 32
ATOM     32  CA  ALA E  13      -2.920  25.382   0.196  1.00 54.23 LIG 0.17  C 
ATOM     33  CB  ALA E  13      -3.376  24.742  -1.117  1.00 56.27 LIG 0.04  C 
BRANCH 32 34
ATOM     34  C   ALA E  13      -4.065  26.214   0.744  1.00 65.29 LIG 0.24  C 
ATOM     35  N   ALA E  14      -4.067  26.375   2.063  1.00 85.74 LIG-0.35  N 
ATOM     36 H    ALA E  14      -3.491  26.010   2.586  1.00 85.74 LIG 0.16  HD
ATOM     37 O    ALA E  13      -4.888  26.746  -0.004  1.00 75.52 LIG-0.27  OA
BRANCH 35 38
ATOM     38  CA  ALA E  14      -5.053  27.191   2.749  1.00 94.46 LIG 0.16  C 
ATOM     39  CB  ALA E  14      -5.963  26.316   3.581  1.00106.12 LIG 0.04  C 
BRANCH 38 40
ATOM     40  C   ALA E  14      -4.364  28.231   3.624  1.00 99.07 LIG 0.22  C 
ATOM     41 O    ALA E  14      -3.145  28.201   3.797  1.00120.33 LIG-0.29  OA
ENDBRANCH 38 40
ENDBRANCH 35 38
ENDBRANCH 32 34
ENDBRANCH 29 32
ENDBRANCH 26 28
ENDBRANCH 23 26
ENDBRANCH 1 22
TORSDOF 13
ENDMDL
MODEL 186
USER: ADFR SOLUTION from run 79
USER: SCORE 5.515836 LL:  -2.539 LR:  -3.698 RR:   0.000 FEB:   0.179
USER: RMSD 4.140458
USER: SEED 78
USER: STATUS no improvement in best in 57 clusters for 5 generations
USER: GENES 15
USER: genes 0 Translation |==|  0.66547 0.30020 0.56018
USER: genes 1 Rotation |==|  0.59087 0.51686 0.47320 0.99065
USER: genes 2 Torsion [CB]-CA--N-[C] |==|  0.12514
USER: genes 3 Torsion [N]-C--CA-[N] |==|  0.34944
USER: genes 4 Torsion [C]-CA--N-[C] |==|  0.84076
USER: genes 5 Torsion [N]-C--CA-[N] |==|  0.90756
USER: genes 6 Torsion [C]-CA--N-[C] |==|  0.81273
USER: genes 7 Torsion [N]-C--CA-[N] |==|  0.79170
USER: genes 8 Torsion [N]-CA--C-[N] |==|  0.09151
USER: genes 9 Torsion [C]-N--CA-[CB] |==|  0.84431
USER: genes 10 Torsion [N]-CA--C-[N] |==|  0.39781
USER: genes 11 Torsion [C]-N--CA-[CB] |==|  0.51667
USER: genes 12 Torsion [N]-CA--C-[N] |==|  0.42236
USER: genes 13 Torsion [C]-N--CA-[C] |==|  0.78511
USER: genes 14 Torsion [N]-CA--C-[O] |==|  0.94957
ROOT
ATOM      1  CA  ALA E  11       2.503  20.033   2.277  1.00 85.35 LIG 0.17  C 
ATOM      2  CB  ALA E  11       1.738  20.164   3.595  1.00 80.46 LIG 0.04  C 
ENDROOT
BRANCH 1 3
ATOM      3  N   ALA E  11       3.543  21.052   2.196  1.00 87.15 LIG-0.35  N 
ATOM      4  C   ALA E  10       4.331  21.298   3.246  1.00 62.15 LIG 0.24  C 
ATOM      5 O    ALA E  10       4.362  20.562   4.234  1.00 65.72 LIG-0.27  OA
ATOM      6 H    ALA E  11       3.596  21.460   1.441  1.00 87.15 LIG 0.16  HD
BRANCH 4 7
ATOM      7  CA  ALA E  10       5.216  22.538   3.188  1.00 66.45 LIG 0.17  C 
ATOM      8  CB  ALA E  10       6.687  22.138   3.085  1.00 58.63 LIG 0.04  C 
BRANCH 7 9
ATOM      9  N   ALA E  10       5.020  23.401   4.343  1.00 75.43 LIG-0.35  N 
ATOM     10  C   ALA E   9       3.835  23.908   4.677  1.00 82.21 LIG 0.24  C 
ATOM     11 O    ALA E   9       2.805  23.721   4.022  1.00 73.75 LIG-0.27  OA
ATOM     12 H    ALA E  10       5.740  23.553   4.788  1.00 75.43 LIG 0.16  HD
BRANCH 10 13
ATOM     13  CA  ALA E   9       3.809  24.781   5.925  1.00 87.65 LIG 0.17  C 
ATOM     14  CB  ALA E   9       4.087  26.242   5.579  1.00 72.21 LIG 0.04  C 
BRANCH 13 15
ATOM     15  N   ALA E   9       4.797  24.257   6.859  1.00 84.24 LIG-0.35  N 
ATOM     16 H    ALA E   9       5.469  24.779   6.990  1.00 84.24 LIG 0.16  HD
ATOM     17  C   ALA E   8       4.661  23.077   7.447  1.00 61.40 LIG 0.26  C 
ATOM     18 O    ALA E   8       3.652  22.385   7.322  1.00 66.21 LIG-0.27  OA
BRANCH 17 19
ATOM     19  CA  ALA E   8       5.820  22.622   8.329  1.00 67.03 LIG 0.40  C 
ATOM     20  N   ALA E   8       6.974  22.174   7.493  1.00 60.26 LIG 0.61  N 
ATOM     21  CB  ALA E   8       6.250  23.741   9.271  1.00 64.64 LIG 0.06  C 
ENDBRANCH 17 19
ENDBRANCH 13 15
ENDBRANCH 10 13
ENDBRANCH 7 9
ENDBRANCH 4 7
ENDBRANCH 1 3
BRANCH 1 22
ATOM     22  C   ALA E  11       1.542  20.121   1.098  1.00 81.78 LIG 0.24  C 
ATOM     23  N   ALA E  12       2.038  20.519  -0.072  1.00 82.91 LIG-0.35  N 
ATOM     24 H    ALA E  12       2.876  20.623  -0.238  1.00 82.91 LIG 0.16  HD
ATOM     25 O    ALA E  11       0.345  19.843   1.240  1.00 89.30 LIG-0.27  OA
BRANCH 23 26
ATOM     26  CA  ALA E  12       1.146  20.813  -1.185  1.00 61.10 LIG 0.17  C 
ATOM     27  CB  ALA E  12       0.251  19.605  -1.499  1.00 65.27 LIG 0.04  C 
BRANCH 26 28
ATOM     28  C   ALA E  12       0.299  22.038  -0.880  1.00 54.59 LIG 0.24  C 
ATOM     29  N   ALA E  13       0.063  22.829  -1.926  1.00 64.78 LIG-0.35  N 
ATOM     30 H    ALA E  13       0.308  22.644  -2.730  1.00 64.78 LIG 0.16  HD
ATOM     31 O    ALA E  12      -0.157  22.240   0.249  1.00 69.11 LIG-0.27  OA
BRANCH 29 32
ATOM     32  CA  ALA E  13      -0.640  24.094  -1.794  1.00 54.23 LIG 0.17  C 
ATOM     33  CB  ALA E  13      -0.888  24.701  -3.175  1.00 56.27 LIG 0.04  C 
BRANCH 32 34
ATOM     34  C   ALA E  13      -1.978  23.943  -1.092  1.00 65.29 LIG 0.24  C 
ATOM     35  N   ALA E  14      -2.397  25.016  -0.431  1.00 85.74 LIG-0.35  N 
ATOM     36 H    ALA E  14      -1.938  25.740  -0.364  1.00 85.74 LIG 0.16  HD
ATOM     37 O    ALA E  13      -2.642  22.908  -1.193  1.00 75.52 LIG-0.27  OA
BRANCH 35 38
ATOM     38  CA  ALA E  14      -3.680  25.066   0.246  1.00 94.46 LIG 0.16  C 
ATOM     39  CB  ALA E  14      -3.681  26.170   1.278  1.00106.12 LIG 0.04  C 
BRANCH 38 40
ATOM     40  C   ALA E  14      -4.803  25.276  -0.763  1.00 99.07 LIG 0.22  C 
ATOM     41 O    ALA E  14      -4.564  25.703  -1.893  1.00120.33 LIG-0.29  OA
ENDBRANCH 38 40
ENDBRANCH 35 38
ENDBRANCH 32 34
ENDBRANCH 29 32
ENDBRANCH 26 28
ENDBRANCH 23 26
ENDBRANCH 1 22
TORSDOF 13
ENDMDL
MODEL 187
USER: ADFR SOLUTION from run 181
USER: SCORE 3.622622 LL:  -2.407 LR:  -3.690 RR:   0.000 FEB:   0.188
USER: RMSD 3.834228
USER: SEED 180
USER: STATUS no improvement in best in 74 clusters for 5 generations
USER: GENES 15
USER: genes 0 Translation |==|  0.51421 0.38820 0.68783
USER: genes 1 Rotation |==|  0.46657 0.38600 0.52216 0.98517
USER: genes 2 Torsion [CB]-CA--N-[C] |==|  0.47484
USER: genes 3 Torsion [N]-C--CA-[N] |==|  0.45088
USER: genes 4 Torsion [C]-CA--N-[C] |==|  0.77826
USER: genes 5 Torsion [N]-C--CA-[N] |==|  0.09333
USER: genes 6 Torsion [C]-CA--N-[C] |==|  0.74951
USER: genes 7 Torsion [N]-C--CA-[N] |==|  0.93275
USER: genes 8 Torsion [N]-CA--C-[N] |==|  0.88346
USER: genes 9 Torsion [C]-N--CA-[CB] |==|  0.84998
USER: genes 10 Torsion [N]-CA--C-[N] |==|  0.37807
USER: genes 11 Torsion [C]-N--CA-[CB] |==|  0.17194
USER: genes 12 Torsion [N]-CA--C-[N] |==|  0.07364
USER: genes 13 Torsion [C]-N--CA-[C] |==|  0.57376
USER: genes 14 Torsion [N]-CA--C-[O] |==|  0.97097
ROOT
ATOM      1  CA  ALA E  11      -0.900  21.617   4.575  1.00 85.35 LIG 0.17  C 
ATOM      2  CB  ALA E  11      -2.230  22.131   5.130  1.00 80.46 LIG 0.04  C 
ENDROOT
BRANCH 1 3
ATOM      3  N   ALA E  11       0.061  22.710   4.482  1.00 87.15 LIG-0.35  N 
ATOM      4  C   ALA E  10       1.341  22.462   4.194  1.00 62.15 LIG 0.24  C 
ATOM      5 O    ALA E  10       1.726  21.360   3.800  1.00 65.72 LIG-0.27  OA
ATOM      6 H    ALA E  11      -0.264  23.494   4.623  1.00 87.15 LIG 0.16  HD
BRANCH 4 7
ATOM      7  CA  ALA E  10       2.336  23.604   4.365  1.00 66.45 LIG 0.17  C 
ATOM      8  CB  ALA E  10       2.190  24.611   3.225  1.00 58.63 LIG 0.04  C 
BRANCH 7 9
ATOM      9  N   ALA E  10       3.709  23.126   4.427  1.00 75.43 LIG-0.35  N 
ATOM     10  C   ALA E   9       4.248  22.609   5.529  1.00 82.21 LIG 0.24  C 
ATOM     11 O    ALA E   9       3.646  22.520   6.605  1.00 73.75 LIG-0.27  OA
ATOM     12 H    ALA E  10       4.139  23.208   3.687  1.00 75.43 LIG 0.16  HD
BRANCH 10 13
ATOM     13  CA  ALA E   9       5.694  22.145   5.413  1.00 87.65 LIG 0.17  C 
ATOM     14  CB  ALA E   9       6.378  22.137   6.778  1.00 72.21 LIG 0.04  C 
BRANCH 13 15
ATOM     15  N   ALA E   9       6.376  23.034   4.481  1.00 84.24 LIG-0.35  N 
ATOM     16 H    ALA E   9       6.737  23.722   4.850  1.00 84.24 LIG 0.16  HD
ATOM     17  C   ALA E   8       6.426  22.791   3.178  1.00 61.40 LIG 0.26  C 
ATOM     18 O    ALA E   8       5.986  21.757   2.678  1.00 66.21 LIG-0.27  OA
BRANCH 17 19
ATOM     19  CA  ALA E   8       7.095  23.857   2.316  1.00 67.03 LIG 0.40  C 
ATOM     20  N   ALA E   8       7.045  25.188   2.991  1.00 60.26 LIG 0.61  N 
ATOM     21  CB  ALA E   8       8.538  23.471   2.010  1.00 64.64 LIG 0.06  C 
ENDBRANCH 17 19
ENDBRANCH 13 15
ENDBRANCH 10 13
ENDBRANCH 7 9
ENDBRANCH 4 7
ENDBRANCH 1 3
BRANCH 1 22
ATOM     22  C   ALA E  11      -1.117  20.946   3.224  1.00 81.78 LIG 0.24  C 
ATOM     23  N   ALA E  12      -1.219  21.735   2.156  1.00 82.91 LIG-0.35  N 
ATOM     24 H    ALA E  12      -1.063  22.581   2.155  1.00 82.91 LIG 0.16  HD
ATOM     25 O    ALA E  11      -1.205  19.716   3.139  1.00 89.30 LIG-0.27  OA
BRANCH 23 26
ATOM     26  CA  ALA E  12      -1.619  21.180   0.870  1.00 61.10 LIG 0.17  C 
ATOM     27  CB  ALA E  12      -0.715  20.001   0.480  1.00 65.27 LIG 0.04  C 
BRANCH 26 28
ATOM     28  C   ALA E  12      -3.075  20.743   0.908  1.00 54.59 LIG 0.24  C 
ATOM     29  N   ALA E  13      -3.789  21.084  -0.165  1.00 64.78 LIG-0.35  N 
ATOM     30 H    ALA E  13      -3.454  21.464  -0.860  1.00 64.78 LIG 0.16  HD
ATOM     31 O    ALA E  12      -3.526  20.089   1.852  1.00 69.11 LIG-0.27  OA
BRANCH 29 32
ATOM     32  CA  ALA E  13      -5.219  20.838  -0.250  1.00 54.23 LIG 0.17  C 
ATOM     33  CB  ALA E  13      -5.948  21.610   0.850  1.00 56.27 LIG 0.04  C 
BRANCH 32 34
ATOM     34  C   ALA E  13      -5.800  21.253  -1.590  1.00 65.29 LIG 0.24  C 
ATOM     35  N   ALA E  14      -4.946  21.236  -2.607  1.00 85.74 LIG-0.35  N 
ATOM     36 H    ALA E  14      -4.113  21.042  -2.524  1.00 85.74 LIG 0.16  HD
ATOM     37 O    ALA E  13      -6.997  21.523  -1.714  1.00 75.52 LIG-0.27  OA
BRANCH 35 38
ATOM     38  CA  ALA E  14      -5.346  21.545  -3.968  1.00 94.46 LIG 0.16  C 
ATOM     39  CB  ALA E  14      -5.329  23.040  -4.189  1.00106.12 LIG 0.04  C 
BRANCH 38 40
ATOM     40  C   ALA E  14      -4.425  20.847  -4.963  1.00 99.07 LIG 0.22  C 
ATOM     41 O    ALA E  14      -3.390  20.298  -4.585  1.00120.33 LIG-0.29  OA
ENDBRANCH 38 40
ENDBRANCH 35 38
ENDBRANCH 32 34
ENDBRANCH 29 32
ENDBRANCH 26 28
ENDBRANCH 23 26
ENDBRANCH 1 22
TORSDOF 13
ENDMDL
MODEL 188
USER: ADFR SOLUTION from run 195
USER: SCORE 4.946465 LL:  -2.279 LR:  -3.690 RR:   0.000 FEB:   0.188
USER: RMSD 3.926521
USER: SEED 194
USER: STATUS no improvement in best in 70 clusters for 5 generations
USER: GENES 15
USER: genes 0 Translation |==|  0.55405 0.39484 0.59074
USER: genes 1 Rotation |==|  0.81986 0.60005 0.47438 0.87017
USER: genes 2 Torsion [CB]-CA--N-[C] |==|  0.82562
USER: genes 3 Torsion [N]-C--CA-[N] |==|  0.86921
USER: genes 4 Torsion [C]-CA--N-[C] |==|  0.73690
USER: genes 5 Torsion [N]-C--CA-[N] |==|  0.09199
USER: genes 6 Torsion [C]-CA--N-[C] |==|  0.70352
USER: genes 7 Torsion [N]-C--CA-[N] |==|  0.76150
USER: genes 8 Torsion [N]-CA--C-[N] |==|  0.41622
USER: genes 9 Torsion [C]-N--CA-[CB] |==|  0.84312
USER: genes 10 Torsion [N]-CA--C-[N] |==|  0.37549
USER: genes 11 Torsion [C]-N--CA-[CB] |==|  0.17657
USER: genes 12 Torsion [N]-CA--C-[N] |==|  0.09513
USER: genes 13 Torsion [C]-N--CA-[C] |==|  0.53810
USER: genes 14 Torsion [N]-CA--C-[O] |==|  0.98668
ROOT
ATOM      1  CA  ALA E  11      -0.004  21.736   2.827  1.00 85.35 LIG 0.17  C 
ATOM      2  CB  ALA E  11      -0.383  20.557   3.725  1.00 80.46 LIG 0.04  C 
ENDROOT
BRANCH 1 3
ATOM      3  N   ALA E  11       1.114  22.471   3.410  1.00 87.15 LIG-0.35  N 
ATOM      4  C   ALA E  10       0.982  23.074   4.594  1.00 62.15 LIG 0.24  C 
ATOM      5 O    ALA E  10       0.015  22.876   5.330  1.00 65.72 LIG-0.27  OA
ATOM      6 H    ALA E  11       1.832  22.476   2.936  1.00 87.15 LIG 0.16  HD
BRANCH 4 7
ATOM      7  CA  ALA E  10       2.088  24.032   5.023  1.00 66.45 LIG 0.17  C 
ATOM      8  CB  ALA E  10       1.975  25.349   4.257  1.00 58.63 LIG 0.04  C 
BRANCH 7 9
ATOM      9  N   ALA E  10       3.411  23.459   4.826  1.00 75.43 LIG-0.35  N 
ATOM     10  C   ALA E   9       4.078  22.826   5.788  1.00 82.21 LIG 0.24  C 
ATOM     11 O    ALA E   9       3.651  22.696   6.941  1.00 73.75 LIG-0.27  OA
ATOM     12 H    ALA E  10       3.722  23.568   4.031  1.00 75.43 LIG 0.16  HD
BRANCH 10 13
ATOM     13  CA  ALA E   9       5.445  22.276   5.405  1.00 87.65 LIG 0.17  C 
ATOM     14  CB  ALA E   9       6.342  22.130   6.632  1.00 72.21 LIG 0.04  C 
BRANCH 13 15
ATOM     15  N   ALA E   9       6.031  23.179   4.422  1.00 84.24 LIG-0.35  N 
ATOM     16 H    ALA E   9       6.304  23.926   4.749  1.00 84.24 LIG 0.16  HD
ATOM     17  C   ALA E   8       6.128  22.862   3.138  1.00 61.40 LIG 0.26  C 
ATOM     18 O    ALA E   8       5.820  21.754   2.702  1.00 66.21 LIG-0.27  OA
BRANCH 17 19
ATOM     19  CA  ALA E   8       6.680  23.943   2.214  1.00 67.03 LIG 0.40  C 
ATOM     20  N   ALA E   8       5.588  24.855   1.759  1.00 60.26 LIG 0.61  N 
ATOM     21  CB  ALA E   8       7.779  24.737   2.912  1.00 64.64 LIG 0.06  C 
ENDBRANCH 17 19
ENDBRANCH 13 15
ENDBRANCH 10 13
ENDBRANCH 7 9
ENDBRANCH 4 7
ENDBRANCH 1 3
BRANCH 1 22
ATOM     22  C   ALA E  11      -1.211  22.639   2.605  1.00 81.78 LIG 0.24  C 
ATOM     23  N   ALA E  12      -2.023  22.343   1.592  1.00 82.91 LIG-0.35  N 
ATOM     24 H    ALA E  12      -1.979  21.622   1.125  1.00 82.91 LIG 0.16  HD
ATOM     25 O    ALA E  11      -1.410  23.615   3.339  1.00 89.30 LIG-0.27  OA
BRANCH 23 26
ATOM     26  CA  ALA E  12      -3.078  23.268   1.203  1.00 61.10 LIG 0.17  C 
ATOM     27  CB  ALA E  12      -4.000  23.574   2.393  1.00 65.27 LIG 0.04  C 
BRANCH 26 28
ATOM     28  C   ALA E  12      -2.483  24.553   0.649  1.00 54.59 LIG 0.24  C 
ATOM     29  N   ALA E  13      -3.060  25.000  -0.467  1.00 64.78 LIG-0.35  N 
ATOM     30 H    ALA E  13      -3.756  24.639  -0.822  1.00 64.78 LIG 0.16  HD
ATOM     31 O    ALA E  12      -1.563  25.138   1.226  1.00 69.11 LIG-0.27  OA
BRANCH 29 32
ATOM     32  CA  ALA E  13      -2.553  26.155  -1.189  1.00 54.23 LIG 0.17  C 
ATOM     33  CB  ALA E  13      -1.147  25.865  -1.716  1.00 56.27 LIG 0.04  C 
BRANCH 32 34
ATOM     34  C   ALA E  13      -3.434  26.536  -2.365  1.00 65.29 LIG 0.24  C 
ATOM     35  N   ALA E  14      -4.735  26.337  -2.186  1.00 85.74 LIG-0.35  N 
ATOM     36 H    ALA E  14      -5.067  25.983  -1.477  1.00 85.74 LIG 0.16  HD
ATOM     37 O    ALA E  13      -2.961  27.052  -3.381  1.00 75.52 LIG-0.27  OA
BRANCH 35 38
ATOM     38  CA  ALA E  14      -5.726  26.701  -3.183  1.00 94.46 LIG 0.16  C 
ATOM     39  CB  ALA E  14      -5.641  25.765  -4.367  1.00106.12 LIG 0.04  C 
BRANCH 38 40
ATOM     40  C   ALA E  14      -7.124  26.671  -2.576  1.00 99.07 LIG 0.22  C 
ATOM     41 O    ALA E  14      -7.301  26.284  -1.421  1.00120.33 LIG-0.29  OA
ENDBRANCH 38 40
ENDBRANCH 35 38
ENDBRANCH 32 34
ENDBRANCH 29 32
ENDBRANCH 26 28
ENDBRANCH 23 26
ENDBRANCH 1 22
TORSDOF 13
ENDMDL
MODEL 189
USER: ADFR SOLUTION from run 71
USER: SCORE 3.824724 LL:  -2.429 LR:  -3.691 RR:   0.000 FEB:   0.186
USER: RMSD 5.097458
USER: SEED 70
USER: STATUS no improvement in best in 77 clusters for 5 generations
USER: GENES 15
USER: genes 0 Translation |==|  0.52722 0.42574 0.68501
USER: genes 1 Rotation |==|  0.60808 0.43082 0.48607 0.98305
USER: genes 2 Torsion [CB]-CA--N-[C] |==|  0.42543
USER: genes 3 Torsion [N]-C--CA-[N] |==|  0.43356
USER: genes 4 Torsion [C]-CA--N-[C] |==|  0.75362
USER: genes 5 Torsion [N]-C--CA-[N] |==|  0.04897
USER: genes 6 Torsion [C]-CA--N-[C] |==|  0.75022
USER: genes 7 Torsion [N]-C--CA-[N] |==|  0.54932
USER: genes 8 Torsion [N]-CA--C-[N] |==|  0.87145
USER: genes 9 Torsion [C]-N--CA-[CB] |==|  0.51771
USER: genes 10 Torsion [N]-CA--C-[N] |==|  0.46596
USER: genes 11 Torsion [C]-N--CA-[CB] |==|  0.84709
USER: genes 12 Torsion [N]-CA--C-[N] |==|  0.38390
USER: genes 13 Torsion [C]-N--CA-[C] |==|  0.16939
USER: genes 14 Torsion [N]-CA--C-[O] |==|  0.08354
ROOT
ATOM      1  CA  ALA E  11      -0.608  22.292   4.524  1.00 85.35 LIG 0.17  C 
ATOM      2  CB  ALA E  11      -1.779  22.374   5.504  1.00 80.46 LIG 0.04  C 
ENDROOT
BRANCH 1 3
ATOM      3  N   ALA E  11       0.403  23.288   4.865  1.00 87.15 LIG-0.35  N 
ATOM      4  C   ALA E  10       1.684  23.088   4.544  1.00 62.15 LIG 0.24  C 
ATOM      5 O    ALA E  10       2.040  22.185   3.786  1.00 65.72 LIG-0.27  OA
ATOM      6 H    ALA E  11       0.105  23.983   5.275  1.00 87.15 LIG 0.16  HD
BRANCH 4 7
ATOM      7  CA  ALA E  10       2.717  24.031   5.150  1.00 66.45 LIG 0.17  C 
ATOM      8  CB  ALA E  10       2.777  25.335   4.356  1.00 58.63 LIG 0.04  C 
BRANCH 7 9
ATOM      9  N   ALA E  10       4.040  23.427   5.205  1.00 75.43 LIG-0.35  N 
ATOM     10  C   ALA E   9       4.463  22.700   6.237  1.00 82.21 LIG 0.24  C 
ATOM     11 O    ALA E   9       3.787  22.501   7.253  1.00 73.75 LIG-0.27  OA
ATOM     12 H    ALA E  10       4.521  23.583   4.510  1.00 75.43 LIG 0.16  HD
BRANCH 10 13
ATOM     13  CA  ALA E   9       5.870  22.131   6.122  1.00 87.65 LIG 0.17  C 
ATOM     14  CB  ALA E   9       6.607  22.216   7.457  1.00 72.21 LIG 0.04  C 
BRANCH 13 15
ATOM     15  N   ALA E   9       6.569  22.871   5.079  1.00 84.24 LIG-0.35  N 
ATOM     16 H    ALA E   9       6.991  23.565   5.363  1.00 84.24 LIG 0.16  HD
ATOM     17  C   ALA E   8       6.548  22.496   3.808  1.00 61.40 LIG 0.26  C 
ATOM     18 O    ALA E   8       6.019  21.451   3.433  1.00 66.21 LIG-0.27  OA
BRANCH 17 19
ATOM     19  CA  ALA E   8       7.249  23.420   2.818  1.00 67.03 LIG 0.40  C 
ATOM     20  N   ALA E   8       6.801  23.135   1.422  1.00 60.26 LIG 0.61  N 
ATOM     21  CB  ALA E   8       6.991  24.881   3.170  1.00 64.64 LIG 0.06  C 
ENDBRANCH 17 19
ENDBRANCH 13 15
ENDBRANCH 10 13
ENDBRANCH 7 9
ENDBRANCH 4 7
ENDBRANCH 1 3
BRANCH 1 22
ATOM     22  C   ALA E  11      -1.103  22.467   3.094  1.00 81.78 LIG 0.24  C 
ATOM     23  N   ALA E  12      -1.413  23.701   2.697  1.00 82.91 LIG-0.35  N 
ATOM     24 H    ALA E  12      -1.250  24.415   3.148  1.00 82.91 LIG 0.16  HD
ATOM     25 O    ALA E  11      -1.221  21.490   2.345  1.00 89.30 LIG-0.27  OA
BRANCH 23 26
ATOM     26  CA  ALA E  12      -2.074  23.914   1.417  1.00 61.10 LIG 0.17  C 
ATOM     27  CB  ALA E  12      -2.185  25.414   1.105  1.00 65.27 LIG 0.04  C 
BRANCH 26 28
ATOM     28  C   ALA E  12      -1.327  23.195   0.305  1.00 54.59 LIG 0.24  C 
ATOM     29  N   ALA E  13      -1.987  23.116  -0.851  1.00 64.78 LIG-0.35  N 
ATOM     30 H    ALA E  13      -2.747  23.493  -0.994  1.00 64.78 LIG 0.16  HD
ATOM     31 O    ALA E  12      -0.185  22.760   0.473  1.00 69.11 LIG-0.27  OA
BRANCH 29 32
ATOM     32  CA  ALA E  13      -1.467  22.373  -1.987  1.00 54.23 LIG 0.17  C 
ATOM     33  CB  ALA E  13      -0.064  22.868  -2.337  1.00 56.27 LIG 0.04  C 
BRANCH 32 34
ATOM     34  C   ALA E  13      -1.393  20.880  -1.718  1.00 65.29 LIG 0.24  C 
ATOM     35  N   ALA E  14      -1.781  20.103  -2.723  1.00 85.74 LIG-0.35  N 
ATOM     36 H    ALA E  14      -2.090  20.407  -3.466  1.00 85.74 LIG 0.16  HD
ATOM     37 O    ALA E  13      -0.943  20.441  -0.657  1.00 75.52 LIG-0.27  OA
BRANCH 35 38
ATOM     38  CA  ALA E  14      -1.718  18.654  -2.660  1.00 94.46 LIG 0.16  C 
ATOM     39  CB  ALA E  14      -0.288  18.203  -2.474  1.00106.12 LIG 0.04  C 
BRANCH 38 40
ATOM     40  C   ALA E  14      -2.595  18.135  -1.526  1.00 99.07 LIG 0.22  C 
ATOM     41 O    ALA E  14      -3.605  18.747  -1.179  1.00120.33 LIG-0.29  OA
ENDBRANCH 38 40
ENDBRANCH 35 38
ENDBRANCH 32 34
ENDBRANCH 29 32
ENDBRANCH 26 28
ENDBRANCH 23 26
ENDBRANCH 1 22
TORSDOF 13
ENDMDL
MODEL 190
USER: ADFR SOLUTION from run 195
USER: SCORE 4.900693 LL:  -2.266 LR:  -3.689 RR:   0.000 FEB:   0.189
USER: RMSD 4.554340
USER: SEED 194
USER: STATUS no improvement in best in 70 clusters for 5 generations
USER: GENES 15
USER: genes 0 Translation |==|  0.55405 0.39484 0.59074
USER: genes 1 Rotation |==|  0.81986 0.60005 0.47438 0.87017
USER: genes 2 Torsion [CB]-CA--N-[C] |==|  0.82562
USER: genes 3 Torsion [N]-C--CA-[N] |==|  0.86921
USER: genes 4 Torsion [C]-CA--N-[C] |==|  0.73690
USER: genes 5 Torsion [N]-C--CA-[N] |==|  0.09199
USER: genes 6 Torsion [C]-CA--N-[C] |==|  0.70352
USER: genes 7 Torsion [N]-C--CA-[N] |==|  0.76150
USER: genes 8 Torsion [N]-CA--C-[N] |==|  0.42579
USER: genes 9 Torsion [C]-N--CA-[CB] |==|  0.84632
USER: genes 10 Torsion [N]-CA--C-[N] |==|  0.38231
USER: genes 11 Torsion [C]-N--CA-[CB] |==|  0.51721
USER: genes 12 Torsion [N]-CA--C-[N] |==|  0.43334
USER: genes 13 Torsion [C]-N--CA-[C] |==|  0.76415
USER: genes 14 Torsion [N]-CA--C-[O] |==|  0.98187
ROOT
ATOM      1  CA  ALA E  11      -0.004  21.736   2.827  1.00 85.35 LIG 0.17  C 
ATOM      2  CB  ALA E  11      -0.383  20.557   3.725  1.00 80.46 LIG 0.04  C 
ENDROOT
BRANCH 1 3
ATOM      3  N   ALA E  11       1.114  22.471   3.410  1.00 87.15 LIG-0.35  N 
ATOM      4  C   ALA E  10       0.982  23.074   4.594  1.00 62.15 LIG 0.24  C 
ATOM      5 O    ALA E  10       0.015  22.876   5.330  1.00 65.72 LIG-0.27  OA
ATOM      6 H    ALA E  11       1.832  22.476   2.936  1.00 87.15 LIG 0.16  HD
BRANCH 4 7
ATOM      7  CA  ALA E  10       2.088  24.032   5.023  1.00 66.45 LIG 0.17  C 
ATOM      8  CB  ALA E  10       1.975  25.349   4.257  1.00 58.63 LIG 0.04  C 
BRANCH 7 9
ATOM      9  N   ALA E  10       3.411  23.459   4.826  1.00 75.43 LIG-0.35  N 
ATOM     10  C   ALA E   9       4.078  22.826   5.788  1.00 82.21 LIG 0.24  C 
ATOM     11 O    ALA E   9       3.651  22.696   6.941  1.00 73.75 LIG-0.27  OA
ATOM     12 H    ALA E  10       3.722  23.568   4.031  1.00 75.43 LIG 0.16  HD
BRANCH 10 13
ATOM     13  CA  ALA E   9       5.445  22.276   5.405  1.00 87.65 LIG 0.17  C 
ATOM     14  CB  ALA E   9       6.342  22.130   6.632  1.00 72.21 LIG 0.04  C 
BRANCH 13 15
ATOM     15  N   ALA E   9       6.031  23.179   4.422  1.00 84.24 LIG-0.35  N 
ATOM     16 H    ALA E   9       6.304  23.926   4.749  1.00 84.24 LIG 0.16  HD
ATOM     17  C   ALA E   8       6.128  22.862   3.138  1.00 61.40 LIG 0.26  C 
ATOM     18 O    ALA E   8       5.820  21.754   2.702  1.00 66.21 LIG-0.27  OA
BRANCH 17 19
ATOM     19  CA  ALA E   8       6.680  23.943   2.214  1.00 67.03 LIG 0.40  C 
ATOM     20  N   ALA E   8       5.588  24.855   1.759  1.00 60.26 LIG 0.61  N 
ATOM     21  CB  ALA E   8       7.779  24.737   2.912  1.00 64.64 LIG 0.06  C 
ENDBRANCH 17 19
ENDBRANCH 13 15
ENDBRANCH 10 13
ENDBRANCH 7 9
ENDBRANCH 4 7
ENDBRANCH 1 3
BRANCH 1 22
ATOM     22  C   ALA E  11      -1.211  22.639   2.605  1.00 81.78 LIG 0.24  C 
ATOM     23  N   ALA E  12      -2.061  22.303   1.637  1.00 82.91 LIG-0.35  N 
ATOM     24 H    ALA E  12      -2.040  21.560   1.203  1.00 82.91 LIG 0.16  HD
ATOM     25 O    ALA E  11      -1.376  23.651   3.298  1.00 89.30 LIG-0.27  OA
BRANCH 23 26
ATOM     26  CA  ALA E  12      -3.122  23.219   1.242  1.00 61.10 LIG 0.17  C 
ATOM     27  CB  ALA E  12      -3.981  23.612   2.453  1.00 65.27 LIG 0.04  C 
BRANCH 26 28
ATOM     28  C   ALA E  12      -2.539  24.457   0.580  1.00 54.59 LIG 0.24  C 
ATOM     29  N   ALA E  13      -3.195  24.873  -0.503  1.00 64.78 LIG-0.35  N 
ATOM     30 H    ALA E  13      -3.928  24.521  -0.782  1.00 64.78 LIG 0.16  HD
ATOM     31 O    ALA E  12      -1.557  25.036   1.051  1.00 69.11 LIG-0.27  OA
BRANCH 29 32
ATOM     32  CA  ALA E  13      -2.716  25.978  -1.318  1.00 54.23 LIG 0.17  C 
ATOM     33  CB  ALA E  13      -3.749  26.321  -2.392  1.00 56.27 LIG 0.04  C 
BRANCH 32 34
ATOM     34  C   ALA E  13      -2.446  27.227  -0.499  1.00 65.29 LIG 0.24  C 
ATOM     35  N   ALA E  14      -1.575  28.077  -1.031  1.00 85.74 LIG-0.35  N 
ATOM     36 H    ALA E  14      -1.156  27.928  -1.767  1.00 85.74 LIG 0.16  HD
ATOM     37 O    ALA E  13      -3.052  27.448   0.553  1.00 75.52 LIG-0.27  OA
BRANCH 35 38
ATOM     38  CA  ALA E  14      -1.245  29.348  -0.412  1.00 94.46 LIG 0.16  C 
ATOM     39  CB  ALA E  14       0.153  29.770  -0.803  1.00106.12 LIG 0.04  C 
BRANCH 38 40
ATOM     40  C   ALA E  14      -2.259  30.413  -0.818  1.00 99.07 LIG 0.22  C 
ATOM     41 O    ALA E  14      -3.122  30.172  -1.661  1.00120.33 LIG-0.29  OA
ENDBRANCH 38 40
ENDBRANCH 35 38
ENDBRANCH 32 34
ENDBRANCH 29 32
ENDBRANCH 26 28
ENDBRANCH 23 26
ENDBRANCH 1 22
TORSDOF 13
ENDMDL
MODEL 191
USER: ADFR SOLUTION from run 166
USER: SCORE 4.287521 LL:  -2.292 LR:  -3.688 RR:   0.000 FEB:   0.190
USER: RMSD 3.872654
USER: SEED 165
USER: STATUS no improvement in best in 98 clusters for 5 generations
USER: GENES 15
USER: genes 0 Translation |==|  0.67115 0.37756 0.60715
USER: genes 1 Rotation |==|  0.82292 0.60899 0.58405 0.85606
USER: genes 2 Torsion [CB]-CA--N-[C] |==|  0.14904
USER: genes 3 Torsion [N]-C--CA-[N] |==|  0.04818
USER: genes 4 Torsion [C]-CA--N-[C] |==|  0.68337
USER: genes 5 Torsion [N]-C--CA-[N] |==|  0.50531
USER: genes 6 Torsion [C]-CA--N-[C] |==|  0.74061
USER: genes 7 Torsion [N]-C--CA-[N] |==|  0.93866
USER: genes 8 Torsion [N]-CA--C-[N] |==|  0.65127
USER: genes 9 Torsion [C]-N--CA-[CB] |==|  0.84435
USER: genes 10 Torsion [N]-CA--C-[N] |==|  0.40529
USER: genes 11 Torsion [C]-N--CA-[CB] |==|  0.18242
USER: genes 12 Torsion [N]-CA--C-[N] |==|  0.10043
USER: genes 13 Torsion [C]-N--CA-[C] |==|  0.76255
USER: genes 14 Torsion [N]-CA--C-[O] |==|  0.99508
ROOT
ATOM      1  CA  ALA E  11       2.631  21.425   3.123  1.00 85.35 LIG 0.17  C 
ATOM      2  CB  ALA E  11       2.506  20.050   3.781  1.00 80.46 LIG 0.04  C 
ENDROOT
BRANCH 1 3
ATOM      3  N   ALA E  11       3.268  22.364   4.040  1.00 87.15 LIG-0.35  N 
ATOM      4  C   ALA E  10       4.445  22.070   4.598  1.00 62.15 LIG 0.24  C 
ATOM      5 O    ALA E  10       5.132  21.119   4.224  1.00 65.72 LIG-0.27  OA
ATOM      6 H    ALA E  11       2.830  23.092   4.178  1.00 87.15 LIG 0.16  HD
BRANCH 4 7
ATOM      7  CA  ALA E  10       4.928  22.965   5.734  1.00 66.45 LIG 0.17  C 
ATOM      8  CB  ALA E  10       5.579  22.124   6.832  1.00 58.63 LIG 0.04  C 
BRANCH 7 9
ATOM      9  N   ALA E  10       3.847  23.760   6.298  1.00 75.43 LIG-0.35  N 
ATOM     10  C   ALA E   9       3.798  25.087   6.203  1.00 82.21 LIG 0.24  C 
ATOM     11 O    ALA E   9       4.677  25.764   5.660  1.00 73.75 LIG-0.27  OA
ATOM     12 H    ALA E  10       3.245  23.293   6.698  1.00 75.43 LIG 0.16  HD
BRANCH 10 13
ATOM     13  CA  ALA E   9       2.588  25.758   6.839  1.00 87.65 LIG 0.17  C 
ATOM     14  CB  ALA E   9       1.287  25.187   6.280  1.00 72.21 LIG 0.04  C 
BRANCH 13 15
ATOM     15  N   ALA E   9       2.690  27.191   6.593  1.00 84.24 LIG-0.35  N 
ATOM     16 H    ALA E   9       2.355  27.443   5.842  1.00 84.24 LIG 0.16  HD
ATOM     17  C   ALA E   8       3.253  28.020   7.461  1.00 61.40 LIG 0.26  C 
ATOM     18 O    ALA E   8       3.641  27.658   8.569  1.00 66.21 LIG-0.27  OA
BRANCH 17 19
ATOM     19  CA  ALA E   8       3.369  29.478   7.025  1.00 67.03 LIG 0.40  C 
ATOM     20  N   ALA E   8       3.315  29.589   5.537  1.00 60.26 LIG 0.61  N 
ATOM     21  CB  ALA E   8       2.267  30.318   7.661  1.00 64.64 LIG 0.06  C 
ENDBRANCH 17 19
ENDBRANCH 13 15
ENDBRANCH 10 13
ENDBRANCH 7 9
ENDBRANCH 4 7
ENDBRANCH 1 3
BRANCH 1 22
ATOM     22  C   ALA E  11       1.262  21.922   2.676  1.00 81.78 LIG 0.24  C 
ATOM     23  N   ALA E  12       0.223  21.108   2.856  1.00 82.91 LIG-0.35  N 
ATOM     24 H    ALA E  12       0.248  20.373   3.303  1.00 82.91 LIG 0.16  HD
ATOM     25 O    ALA E  11       1.136  23.037   2.156  1.00 89.30 LIG-0.27  OA
BRANCH 23 26
ATOM     26  CA  ALA E  12      -1.074  21.435   2.279  1.00 61.10 LIG 0.17  C 
ATOM     27  CB  ALA E  12      -1.543  22.822   2.743  1.00 65.27 LIG 0.04  C 
BRANCH 26 28
ATOM     28  C   ALA E  12      -1.011  21.376   0.761  1.00 54.59 LIG 0.24  C 
ATOM     29  N   ALA E  13      -2.130  20.954   0.172  1.00 64.78 LIG-0.35  N 
ATOM     30 H    ALA E  13      -2.860  20.786   0.596  1.00 64.78 LIG 0.16  HD
ATOM     31 O    ALA E  12      -0.005  21.734   0.144  1.00 69.11 LIG-0.27  OA
BRANCH 29 32
ATOM     32  CA  ALA E  13      -2.212  20.738  -1.264  1.00 54.23 LIG 0.17  C 
ATOM     33  CB  ALA E  13      -1.294  19.585  -1.672  1.00 56.27 LIG 0.04  C 
BRANCH 32 34
ATOM     34  C   ALA E  13      -3.623  20.411  -1.720  1.00 65.29 LIG 0.24  C 
ATOM     35  N   ALA E  14      -4.591  21.048  -1.072  1.00 85.74 LIG-0.35  N 
ATOM     36 H    ALA E  14      -4.449  21.582  -0.413  1.00 85.74 LIG 0.16  HD
ATOM     37 O    ALA E  13      -3.829  19.651  -2.670  1.00 75.52 LIG-0.27  OA
BRANCH 35 38
ATOM     38  CA  ALA E  14      -5.993  20.899  -1.419  1.00 94.46 LIG 0.16  C 
ATOM     39  CB  ALA E  14      -6.858  21.136  -0.201  1.00106.12 LIG 0.04  C 
BRANCH 38 40
ATOM     40  C   ALA E  14      -6.367  21.866  -2.537  1.00 99.07 LIG 0.22  C 
ATOM     41 O    ALA E  14      -5.538  22.651  -2.995  1.00120.33 LIG-0.29  OA
ENDBRANCH 38 40
ENDBRANCH 35 38
ENDBRANCH 32 34
ENDBRANCH 29 32
ENDBRANCH 26 28
ENDBRANCH 23 26
ENDBRANCH 1 22
TORSDOF 13
ENDMDL
MODEL 192
USER: ADFR SOLUTION from run 145
USER: SCORE 5.162560 LL:  -2.972 LR:  -3.676 RR:   0.000 FEB:   0.202
USER: RMSD 5.784793
USER: SEED 144
USER: STATUS no improvement in best in 74 clusters for 5 generations
USER: GENES 15
USER: genes 0 Translation |==|  0.55734 0.52999 0.69424
USER: genes 1 Rotation |==|  0.52706 0.47337 0.42419 0.99276
USER: genes 2 Torsion [CB]-CA--N-[C] |==|  0.19680
USER: genes 3 Torsion [N]-C--CA-[N] |==|  0.35061
USER: genes 4 Torsion [C]-CA--N-[C] |==|  0.77055
USER: genes 5 Torsion [N]-C--CA-[N] |==|  0.35241
USER: genes 6 Torsion [C]-CA--N-[C] |==|  0.82297
USER: genes 7 Torsion [N]-C--CA-[N] |==|  0.33449
USER: genes 8 Torsion [N]-CA--C-[N] |==|  0.92531
USER: genes 9 Torsion [C]-N--CA-[CB] |==|  0.85504
USER: genes 10 Torsion [N]-CA--C-[N] |==|  0.37309
USER: genes 11 Torsion [C]-N--CA-[CB] |==|  0.84692
USER: genes 12 Torsion [N]-CA--C-[N] |==|  0.97927
USER: genes 13 Torsion [C]-N--CA-[C] |==|  0.56156
USER: genes 14 Torsion [N]-CA--C-[O] |==|  0.97891
ROOT
ATOM      1  CA  ALA E  11       0.070  24.169   4.690  1.00 85.35 LIG 0.17  C 
ATOM      2  CB  ALA E  11      -0.761  24.807   5.805  1.00 80.46 LIG 0.04  C 
ENDROOT
BRANCH 1 3
ATOM      3  N   ALA E  11       1.318  24.903   4.512  1.00 87.15 LIG-0.35  N 
ATOM      4  C   ALA E  10       2.280  24.835   5.436  1.00 62.15 LIG 0.24  C 
ATOM      5 O    ALA E  10       2.254  24.015   6.355  1.00 65.72 LIG-0.27  OA
ATOM      6 H    ALA E  11       1.370  25.362   3.787  1.00 87.15 LIG 0.16  HD
BRANCH 4 7
ATOM      7  CA  ALA E  10       3.439  25.818   5.320  1.00 66.45 LIG 0.17  C 
ATOM      8  CB  ALA E  10       4.725  25.081   4.946  1.00 58.63 LIG 0.04  C 
BRANCH 7 9
ATOM      9  N   ALA E  10       3.642  26.569   6.550  1.00 75.43 LIG-0.35  N 
ATOM     10  C   ALA E   9       2.935  27.654   6.862  1.00 82.21 LIG 0.24  C 
ATOM     11 O    ALA E   9       2.070  28.139   6.124  1.00 73.75 LIG-0.27  OA
ATOM     12 H    ALA E  10       4.260  26.248   7.055  1.00 75.43 LIG 0.16  HD
BRANCH 10 13
ATOM     13  CA  ALA E   9       3.269  28.309   8.195  1.00 87.65 LIG 0.17  C 
ATOM     14  CB  ALA E   9       2.129  28.130   9.195  1.00 72.21 LIG 0.04  C 
BRANCH 13 15
ATOM     15  N   ALA E   9       3.543  29.718   7.946  1.00 84.24 LIG-0.35  N 
ATOM     16 H    ALA E   9       2.986  30.256   8.322  1.00 84.24 LIG 0.16  HD
ATOM     17  C   ALA E   8       4.564  30.121   7.202  1.00 61.40 LIG 0.26  C 
ATOM     18 O    ALA E   8       5.403  29.345   6.750  1.00 66.21 LIG-0.27  OA
BRANCH 17 19
ATOM     19  CA  ALA E   8       4.669  31.623   6.955  1.00 67.03 LIG 0.40  C 
ATOM     20  N   ALA E   8       5.966  32.152   7.474  1.00 60.26 LIG 0.61  N 
ATOM     21  CB  ALA E   8       4.525  31.935   5.469  1.00 64.64 LIG 0.06  C 
ENDBRANCH 17 19
ENDBRANCH 13 15
ENDBRANCH 10 13
ENDBRANCH 7 9
ENDBRANCH 4 7
ENDBRANCH 1 3
BRANCH 1 22
ATOM     22  C   ALA E  11      -0.735  24.114   3.398  1.00 81.78 LIG 0.24  C 
ATOM     23  N   ALA E  12      -0.558  25.100   2.521  1.00 82.91 LIG-0.35  N 
ATOM     24 H    ALA E  12       0.053  25.703   2.578  1.00 82.91 LIG 0.16  HD
ATOM     25 O    ALA E  11      -1.529  23.188   3.189  1.00 89.30 LIG-0.27  OA
BRANCH 23 26
ATOM     26  CA  ALA E  12      -1.431  25.215   1.361  1.00 61.10 LIG 0.17  C 
ATOM     27  CB  ALA E  12      -1.495  23.886   0.592  1.00 65.27 LIG 0.04  C 
BRANCH 26 28
ATOM     28  C   ALA E  12      -2.825  25.652   1.784  1.00 54.59 LIG 0.24  C 
ATOM     29  N   ALA E  13      -3.356  26.622   1.040  1.00 64.78 LIG-0.35  N 
ATOM     30 H    ALA E  13      -2.983  26.942   0.334  1.00 64.78 LIG 0.16  HD
ATOM     31 O    ALA E  12      -3.412  25.107   2.722  1.00 69.11 LIG-0.27  OA
BRANCH 29 32
ATOM     32  CA  ALA E  13      -4.636  27.231   1.366  1.00 54.23 LIG 0.17  C 
ATOM     33  CB  ALA E  13      -5.713  26.152   1.481  1.00 56.27 LIG 0.04  C 
BRANCH 32 34
ATOM     34  C   ALA E  13      -4.593  28.004   2.671  1.00 65.29 LIG 0.24  C 
ATOM     35  N   ALA E  14      -3.471  27.875   3.370  1.00 85.74 LIG-0.35  N 
ATOM     36 H    ALA E  14      -2.821  27.365   3.134  1.00 85.74 LIG 0.16  HD
ATOM     37 O    ALA E  13      -5.520  28.744   3.010  1.00 75.52 LIG-0.27  OA
BRANCH 35 38
ATOM     38  CA  ALA E  14      -3.236  28.591   4.611  1.00 94.46 LIG 0.16  C 
ATOM     39  CB  ALA E  14      -3.945  27.900   5.753  1.00106.12 LIG 0.04  C 
BRANCH 38 40
ATOM     40  C   ALA E  14      -1.741  28.690   4.891  1.00 99.07 LIG 0.22  C 
ATOM     41 O    ALA E  14      -0.928  28.085   4.194  1.00120.33 LIG-0.29  OA
ENDBRANCH 38 40
ENDBRANCH 35 38
ENDBRANCH 32 34
ENDBRANCH 29 32
ENDBRANCH 26 28
ENDBRANCH 23 26
ENDBRANCH 1 22
TORSDOF 13
ENDMDL
MODEL 193
USER: ADFR SOLUTION from run 150
USER: SCORE 3.698885 LL:  -2.836 LR:  -3.681 RR:   0.000 FEB:   0.197
USER: RMSD 4.845673
USER: SEED 149
USER: STATUS no improvement in best in 76 clusters for 5 generations
USER: GENES 15
USER: genes 0 Translation |==|  0.55193 0.28482 0.61319
USER: genes 1 Rotation |==|  0.55790 0.41317 0.56078 0.98519
USER: genes 2 Torsion [CB]-CA--N-[C] |==|  0.38050
USER: genes 3 Torsion [N]-C--CA-[N] |==|  0.48290
USER: genes 4 Torsion [C]-CA--N-[C] |==|  0.69657
USER: genes 5 Torsion [N]-C--CA-[N] |==|  0.15021
USER: genes 6 Torsion [C]-CA--N-[C] |==|  0.77709
USER: genes 7 Torsion [N]-C--CA-[N] |==|  0.43744
USER: genes 8 Torsion [N]-CA--C-[N] |==|  0.07089
USER: genes 9 Torsion [C]-N--CA-[CB] |==|  0.80542
USER: genes 10 Torsion [N]-CA--C-[N] |==|  0.02778
USER: genes 11 Torsion [C]-N--CA-[CB] |==|  0.86085
USER: genes 12 Torsion [N]-CA--C-[N] |==|  0.92666
USER: genes 13 Torsion [C]-N--CA-[C] |==|  0.56370
USER: genes 14 Torsion [N]-CA--C-[O] |==|  0.00039
ROOT
ATOM      1  CA  ALA E  11      -0.051  19.756   3.231  1.00 85.35 LIG 0.17  C 
ATOM      2  CB  ALA E  11      -1.347  19.747   4.045  1.00 80.46 LIG 0.04  C 
ENDROOT
BRANCH 1 3
ATOM      3  N   ALA E  11       0.642  21.027   3.406  1.00 87.15 LIG-0.35  N 
ATOM      4  C   ALA E  10       1.965  21.055   3.589  1.00 62.15 LIG 0.24  C 
ATOM      5 O    ALA E  10       2.675  20.064   3.418  1.00 65.72 LIG-0.27  OA
ATOM      6 H    ALA E  11       0.138  21.723   3.381  1.00 87.15 LIG 0.16  HD
BRANCH 4 7
ATOM      7  CA  ALA E  10       2.588  22.378   4.021  1.00 66.45 LIG 0.17  C 
ATOM      8  CB  ALA E  10       2.391  23.437   2.936  1.00 58.63 LIG 0.04  C 
BRANCH 7 9
ATOM      9  N   ALA E  10       4.005  22.240   4.323  1.00 75.43 LIG-0.35  N 
ATOM     10  C   ALA E   9       4.493  22.312   5.559  1.00 82.21 LIG 0.24  C 
ATOM     11 O    ALA E   9       3.796  22.536   6.555  1.00 73.75 LIG-0.27  OA
ATOM     12 H    ALA E  10       4.496  22.108   3.629  1.00 75.43 LIG 0.16  HD
BRANCH 10 13
ATOM     13  CA  ALA E   9       5.999  22.131   5.696  1.00 87.65 LIG 0.17  C 
ATOM     14  CB  ALA E   9       6.445  22.321   7.144  1.00 72.21 LIG 0.04  C 
BRANCH 13 15
ATOM     15  N   ALA E   9       6.647  23.089   4.808  1.00 84.24 LIG-0.35  N 
ATOM     16 H    ALA E   9       6.934  23.797   5.204  1.00 84.24 LIG 0.16  HD
ATOM     17  C   ALA E   8       6.777  22.873   3.507  1.00 61.40 LIG 0.26  C 
ATOM     18 O    ALA E   8       6.447  21.816   2.972  1.00 66.21 LIG-0.27  OA
BRANCH 17 19
ATOM     19  CA  ALA E   8       7.395  24.005   2.692  1.00 67.03 LIG 0.40  C 
ATOM     20  N   ALA E   8       7.978  23.482   1.420  1.00 60.26 LIG 0.61  N 
ATOM     21  CB  ALA E   8       6.359  25.084   2.397  1.00 64.64 LIG 0.06  C 
ENDBRANCH 17 19
ENDBRANCH 13 15
ENDBRANCH 10 13
ENDBRANCH 7 9
ENDBRANCH 4 7
ENDBRANCH 1 3
BRANCH 1 22
ATOM     22  C   ALA E  11      -0.349  19.479   1.763  1.00 81.78 LIG 0.24  C 
ATOM     23  N   ALA E  12       0.442  20.052   0.857  1.00 82.91 LIG-0.35  N 
ATOM     24 H    ALA E  12       1.170  20.474   1.039  1.00 82.91 LIG 0.16  HD
ATOM     25 O    ALA E  11      -1.300  18.758   1.438  1.00 89.30 LIG-0.27  OA
BRANCH 23 26
ATOM     26  CA  ALA E  12       0.101  19.991  -0.558  1.00 61.10 LIG 0.17  C 
ATOM     27  CB  ALA E  12       0.266  18.562  -1.097  1.00 65.27 LIG 0.04  C 
BRANCH 26 28
ATOM     28  C   ALA E  12      -1.320  20.483  -0.785  1.00 54.59 LIG 0.24  C 
ATOM     29  N   ALA E  13      -1.888  21.058   0.275  1.00 64.78 LIG-0.35  N 
ATOM     30 H    ALA E  13      -1.477  21.205   1.016  1.00 64.78 LIG 0.16  HD
ATOM     31 O    ALA E  12      -1.867  20.382  -1.886  1.00 69.11 LIG-0.27  OA
BRANCH 29 32
ATOM     32  CA  ALA E  13      -3.276  21.491   0.266  1.00 54.23 LIG 0.17  C 
ATOM     33  CB  ALA E  13      -3.550  22.340  -0.976  1.00 56.27 LIG 0.04  C 
BRANCH 32 34
ATOM     34  C   ALA E  13      -4.247  20.324   0.270  1.00 65.29 LIG 0.24  C 
ATOM     35  N   ALA E  14      -3.780  19.196  -0.254  1.00 85.74 LIG-0.35  N 
ATOM     36 H    ALA E  14      -3.001  19.126  -0.609  1.00 85.74 LIG 0.16  HD
ATOM     37 O    ALA E  13      -5.364  20.420   0.785  1.00 75.52 LIG-0.27  OA
BRANCH 35 38
ATOM     38  CA  ALA E  14      -4.552  17.967  -0.277  1.00 94.46 LIG 0.16  C 
ATOM     39  CB  ALA E  14      -5.537  17.992  -1.424  1.00106.12 LIG 0.04  C 
BRANCH 38 40
ATOM     40  C   ALA E  14      -3.626  16.762  -0.394  1.00 99.07 LIG 0.22  C 
ATOM     41 O    ALA E  14      -2.405  16.909  -0.452  1.00120.33 LIG-0.29  OA
ENDBRANCH 38 40
ENDBRANCH 35 38
ENDBRANCH 32 34
ENDBRANCH 29 32
ENDBRANCH 26 28
ENDBRANCH 23 26
ENDBRANCH 1 22
TORSDOF 13
ENDMDL
MODEL 194
USER: ADFR SOLUTION from run 126
USER: SCORE 3.961276 LL:  -2.500 LR:  -3.666 RR:   0.000 FEB:   0.211
USER: RMSD 3.950883
USER: SEED 125
USER: STATUS no improvement in best in 55 clusters for 5 generations
USER: GENES 15
USER: genes 0 Translation |==|  0.52564 0.36045 0.66779
USER: genes 1 Rotation |==|  0.44459 0.40517 0.52766 0.98700
USER: genes 2 Torsion [CB]-CA--N-[C] |==|  0.44252
USER: genes 3 Torsion [N]-C--CA-[N] |==|  0.44442
USER: genes 4 Torsion [C]-CA--N-[C] |==|  0.77368
USER: genes 5 Torsion [N]-C--CA-[N] |==|  0.13445
USER: genes 6 Torsion [C]-CA--N-[C] |==|  0.76889
USER: genes 7 Torsion [N]-C--CA-[N] |==|  0.53156
USER: genes 8 Torsion [N]-CA--C-[N] |==|  0.88992
USER: genes 9 Torsion [C]-N--CA-[CB] |==|  0.84312
USER: genes 10 Torsion [N]-CA--C-[N] |==|  0.38181
USER: genes 11 Torsion [C]-N--CA-[CB] |==|  0.84425
USER: genes 12 Torsion [N]-CA--C-[N] |==|  0.39799
USER: genes 13 Torsion [C]-N--CA-[C] |==|  0.16575
USER: genes 14 Torsion [N]-CA--C-[O] |==|  0.10726
ROOT
ATOM      1  CA  ALA E  11      -0.643  21.117   4.214  1.00 85.35 LIG 0.17  C 
ATOM      2  CB  ALA E  11      -1.928  21.691   4.815  1.00 80.46 LIG 0.04  C 
ENDROOT
BRANCH 1 3
ATOM      3  N   ALA E  11       0.309  22.190   3.949  1.00 87.15 LIG-0.35  N 
ATOM      4  C   ALA E  10       1.611  21.921   3.821  1.00 62.15 LIG 0.24  C 
ATOM      5 O    ALA E  10       2.039  20.771   3.716  1.00 65.72 LIG-0.27  OA
ATOM      6 H    ALA E  11      -0.035  22.975   3.886  1.00 87.15 LIG 0.16  HD
BRANCH 4 7
ATOM      7  CA  ALA E  10       2.576  23.102   3.805  1.00 66.45 LIG 0.17  C 
ATOM      8  CB  ALA E  10       2.551  23.788   2.440  1.00 58.63 LIG 0.04  C 
BRANCH 7 9
ATOM      9  N   ALA E  10       3.936  22.698   4.128  1.00 75.43 LIG-0.35  N 
ATOM     10  C   ALA E   9       4.362  22.520   5.377  1.00 82.21 LIG 0.24  C 
ATOM     11 O    ALA E   9       3.654  22.713   6.372  1.00 73.75 LIG-0.27  OA
ATOM     12 H    ALA E  10       4.438  22.586   3.439  1.00 75.43 LIG 0.16  HD
BRANCH 10 13
ATOM     13  CA  ALA E   9       5.812  22.084   5.533  1.00 87.65 LIG 0.17  C 
ATOM     14  CB  ALA E   9       6.245  22.132   6.997  1.00 72.21 LIG 0.04  C 
BRANCH 13 15
ATOM     15  N   ALA E   9       6.635  22.957   4.705  1.00 84.24 LIG-0.35  N 
ATOM     16 H    ALA E   9       6.992  23.613   5.133  1.00 84.24 LIG 0.16  HD
ATOM     17  C   ALA E   8       6.807  22.747   3.408  1.00 61.40 LIG 0.26  C 
ATOM     18 O    ALA E   8       6.367  21.754   2.832  1.00 66.21 LIG-0.27  OA
BRANCH 17 19
ATOM     19  CA  ALA E   8       7.620  23.796   2.655  1.00 67.03 LIG 0.40  C 
ATOM     20  N   ALA E   8       7.508  23.590   1.180  1.00 60.26 LIG 0.61  N 
ATOM     21  CB  ALA E   8       7.163  25.201   3.032  1.00 64.64 LIG 0.06  C 
ENDBRANCH 17 19
ENDBRANCH 13 15
ENDBRANCH 10 13
ENDBRANCH 7 9
ENDBRANCH 4 7
ENDBRANCH 1 3
BRANCH 1 22
ATOM     22  C   ALA E  11      -0.959  20.326   2.951  1.00 81.78 LIG 0.24  C 
ATOM     23  N   ALA E  12      -1.092  21.008   1.815  1.00 82.91 LIG-0.35  N 
ATOM     24 H    ALA E  12      -0.906  21.843   1.721  1.00 82.91 LIG 0.16  HD
ATOM     25 O    ALA E  11      -1.096  19.097   2.995  1.00 89.30 LIG-0.27  OA
BRANCH 23 26
ATOM     26  CA  ALA E  12      -1.584  20.345   0.615  1.00 61.10 LIG 0.17  C 
ATOM     27  CB  ALA E  12      -0.709  19.133   0.265  1.00 65.27 LIG 0.04  C 
BRANCH 26 28
ATOM     28  C   ALA E  12      -3.033  19.921   0.796  1.00 54.59 LIG 0.24  C 
ATOM     29  N   ALA E  13      -3.816  20.146  -0.259  1.00 64.78 LIG-0.35  N 
ATOM     30 H    ALA E  13      -3.529  20.446  -1.012  1.00 64.78 LIG 0.16  HD
ATOM     31 O    ALA E  12      -3.419  19.377   1.833  1.00 69.11 LIG-0.27  OA
BRANCH 29 32
ATOM     32  CA  ALA E  13      -5.249  19.898  -0.223  1.00 54.23 LIG 0.17  C 
ATOM     33  CB  ALA E  13      -5.517  18.447   0.176  1.00 56.27 LIG 0.04  C 
BRANCH 32 34
ATOM     34  C   ALA E  13      -5.969  20.804   0.760  1.00 65.29 LIG 0.24  C 
ATOM     35  N   ALA E  14      -7.172  21.214   0.376  1.00 85.74 LIG-0.35  N 
ATOM     36 H    ALA E  14      -7.518  21.020  -0.387  1.00 85.74 LIG 0.16  HD
ATOM     37 O    ALA E  13      -5.479  21.078   1.858  1.00 75.52 LIG-0.27  OA
BRANCH 35 38
ATOM     38  CA  ALA E  14      -8.024  22.036   1.217  1.00 94.46 LIG 0.16  C 
ATOM     39  CB  ALA E  14      -8.384  21.288   2.481  1.00106.12 LIG 0.04  C 
BRANCH 38 40
ATOM     40  C   ALA E  14      -7.327  23.349   1.553  1.00 99.07 LIG 0.22  C 
ATOM     41 O    ALA E  14      -6.647  23.935   0.711  1.00120.33 LIG-0.29  OA
ENDBRANCH 38 40
ENDBRANCH 35 38
ENDBRANCH 32 34
ENDBRANCH 29 32
ENDBRANCH 26 28
ENDBRANCH 23 26
ENDBRANCH 1 22
TORSDOF 13
ENDMDL
MODEL 195
USER: ADFR SOLUTION from run 94
USER: SCORE 5.489310 LL:  -3.217 LR:  -3.674 RR:   0.000 FEB:   0.204
USER: RMSD 4.530761
USER: SEED 93
USER: STATUS no improvement in best in 43 clusters for 5 generations
USER: GENES 15
USER: genes 0 Translation |==|  0.63484 0.31364 0.61528
USER: genes 1 Rotation |==|  0.81061 0.74180 0.58003 0.79774
USER: genes 2 Torsion [CB]-CA--N-[C] |==|  0.14908
USER: genes 3 Torsion [N]-C--CA-[N] |==|  0.02537
USER: genes 4 Torsion [C]-CA--N-[C] |==|  0.74549
USER: genes 5 Torsion [N]-C--CA-[N] |==|  0.38254
USER: genes 6 Torsion [C]-CA--N-[C] |==|  0.84368
USER: genes 7 Torsion [N]-C--CA-[N] |==|  0.30727
USER: genes 8 Torsion [N]-CA--C-[N] |==|  0.55000
USER: genes 9 Torsion [C]-N--CA-[CB] |==|  0.87021
USER: genes 10 Torsion [N]-CA--C-[N] |==|  0.86826
USER: genes 11 Torsion [C]-N--CA-[CB] |==|  0.17848
USER: genes 12 Torsion [N]-CA--C-[N] |==|  0.08393
USER: genes 13 Torsion [C]-N--CA-[C] |==|  0.54461
USER: genes 14 Torsion [N]-CA--C-[O] |==|  0.96891
ROOT
ATOM      1  CA  ALA E  11       1.814  20.275   3.269  1.00 85.35 LIG 0.17  C 
ATOM      2  CB  ALA E  11       2.480  18.993   3.774  1.00 80.46 LIG 0.04  C 
ENDROOT
BRANCH 1 3
ATOM      3  N   ALA E  11       2.389  21.436   3.938  1.00 87.15 LIG-0.35  N 
ATOM      4  C   ALA E  10       3.710  21.633   3.933  1.00 62.15 LIG 0.24  C 
ATOM      5 O    ALA E  10       4.471  20.984   3.213  1.00 65.72 LIG-0.27  OA
ATOM      6 H    ALA E  11       1.820  21.957   4.318  1.00 87.15 LIG 0.16  HD
BRANCH 4 7
ATOM      7  CA  ALA E  10       4.265  22.710   4.858  1.00 66.45 LIG 0.17  C 
ATOM      8  CB  ALA E  10       5.452  22.168   5.653  1.00 58.63 LIG 0.04  C 
BRANCH 7 9
ATOM      9  N   ALA E  10       3.252  23.218   5.772  1.00 75.43 LIG-0.35  N 
ATOM     10  C   ALA E   9       2.490  24.273   5.495  1.00 82.21 LIG 0.24  C 
ATOM     11 O    ALA E   9       2.595  24.937   4.458  1.00 73.75 LIG-0.27  OA
ATOM     12 H    ALA E  10       3.192  22.773   6.505  1.00 75.43 LIG 0.16  HD
BRANCH 10 13
ATOM     13  CA  ALA E   9       1.471  24.660   6.559  1.00 87.65 LIG 0.17  C 
ATOM     14  CB  ALA E   9       0.080  24.142   6.198  1.00 72.21 LIG 0.04  C 
BRANCH 13 15
ATOM     15  N   ALA E   9       1.483  26.112   6.684  1.00 84.24 LIG-0.35  N 
ATOM     16 H    ALA E   9       0.715  26.482   6.563  1.00 84.24 LIG 0.16  HD
ATOM     17  C   ALA E   8       2.588  26.789   6.961  1.00 61.40 LIG 0.26  C 
ATOM     18 O    ALA E   8       3.656  26.240   7.224  1.00 66.21 LIG-0.27  OA
BRANCH 17 19
ATOM     19  CA  ALA E   8       2.464  28.310   6.971  1.00 67.03 LIG 0.40  C 
ATOM     20  N   ALA E   8       2.599  28.841   8.361  1.00 60.26 LIG 0.61  N 
ATOM     21  CB  ALA E   8       3.509  28.941   6.058  1.00 64.64 LIG 0.06  C 
ENDBRANCH 17 19
ENDBRANCH 13 15
ENDBRANCH 10 13
ENDBRANCH 7 9
ENDBRANCH 4 7
ENDBRANCH 1 3
BRANCH 1 22
ATOM     22  C   ALA E  11       0.306  20.201   3.475  1.00 81.78 LIG 0.24  C 
ATOM     23  N   ALA E  12      -0.290  19.032   3.247  1.00 82.91 LIG-0.35  N 
ATOM     24 H    ALA E  12       0.124  18.292   3.100  1.00 82.91 LIG 0.16  HD
ATOM     25 O    ALA E  11      -0.330  21.201   3.830  1.00 89.30 LIG-0.27  OA
BRANCH 23 26
ATOM     26  CA  ALA E  12      -1.743  18.941   3.234  1.00 61.10 LIG 0.17  C 
ATOM     27  CB  ALA E  12      -2.346  19.668   4.445  1.00 65.27 LIG 0.04  C 
BRANCH 26 28
ATOM     28  C   ALA E  12      -2.302  19.511   1.940  1.00 54.59 LIG 0.24  C 
ATOM     29  N   ALA E  13      -1.802  20.696   1.590  1.00 64.78 LIG-0.35  N 
ATOM     30 H    ALA E  13      -1.166  21.090   2.014  1.00 64.78 LIG 0.16  HD
ATOM     31 O    ALA E  12      -3.126  18.888   1.265  1.00 69.11 LIG-0.27  OA
BRANCH 29 32
ATOM     32  CA  ALA E  13      -2.298  21.433   0.439  1.00 54.23 LIG 0.17  C 
ATOM     33  CB  ALA E  13      -3.757  21.832   0.663  1.00 56.27 LIG 0.04  C 
BRANCH 32 34
ATOM     34  C   ALA E  13      -1.495  22.692   0.168  1.00 65.29 LIG 0.24  C 
ATOM     35  N   ALA E  14      -0.215  22.635   0.518  1.00 85.74 LIG-0.35  N 
ATOM     36 H    ALA E  14       0.140  21.955   0.906  1.00 85.74 LIG 0.16  HD
ATOM     37 O    ALA E  13      -1.999  23.666  -0.397  1.00 75.52 LIG-0.27  OA
BRANCH 35 38
ATOM     38  CA  ALA E  14       0.712  23.726   0.276  1.00 94.46 LIG 0.16  C 
ATOM     39  CB  ALA E  14       0.442  24.861   1.238  1.00106.12 LIG 0.04  C 
BRANCH 38 40
ATOM     40  C   ALA E  14       2.150  23.240   0.412  1.00 99.07 LIG 0.22  C 
ATOM     41 O    ALA E  14       2.399  22.132   0.886  1.00120.33 LIG-0.29  OA
ENDBRANCH 38 40
ENDBRANCH 35 38
ENDBRANCH 32 34
ENDBRANCH 29 32
ENDBRANCH 26 28
ENDBRANCH 23 26
ENDBRANCH 1 22
TORSDOF 13
ENDMDL
MODEL 196
USER: ADFR SOLUTION from run 23
USER: SCORE 4.422748 LL:  -2.710 LR:  -3.674 RR:   0.000 FEB:   0.203
USER: RMSD 3.785483
USER: SEED 22
USER: STATUS no improvement in best in 83 clusters for 5 generations
USER: GENES 15
USER: genes 0 Translation |==|  0.63321 0.33433 0.58946
USER: genes 1 Rotation |==|  0.78448 0.70366 0.51449 0.85691
USER: genes 2 Torsion [CB]-CA--N-[C] |==|  0.13987
USER: genes 3 Torsion [N]-C--CA-[N] |==|  0.04927
USER: genes 4 Torsion [C]-CA--N-[C] |==|  0.22220
USER: genes 5 Torsion [N]-C--CA-[N] |==|  0.98881
USER: genes 6 Torsion [C]-CA--N-[C] |==|  0.78912
USER: genes 7 Torsion [N]-C--CA-[N] |==|  0.53378
USER: genes 8 Torsion [N]-CA--C-[N] |==|  0.09377
USER: genes 9 Torsion [C]-N--CA-[CB] |==|  0.15939
USER: genes 10 Torsion [N]-CA--C-[N] |==|  0.45616
USER: genes 11 Torsion [C]-N--CA-[CB] |==|  0.84695
USER: genes 12 Torsion [N]-CA--C-[N] |==|  0.39941
USER: genes 13 Torsion [C]-N--CA-[C] |==|  0.77833
USER: genes 14 Torsion [N]-CA--C-[O] |==|  0.96396
ROOT
ATOM      1  CA  ALA E  11       1.777  20.647   2.804  1.00 85.35 LIG 0.17  C 
ATOM      2  CB  ALA E  11       2.102  19.472   3.729  1.00 80.46 LIG 0.04  C 
ENDROOT
BRANCH 1 3
ATOM      3  N   ALA E  11       2.603  21.799   3.148  1.00 87.15 LIG-0.35  N 
ATOM      4  C   ALA E  10       3.926  21.668   3.274  1.00 62.15 LIG 0.24  C 
ATOM      5 O    ALA E  10       4.525  20.653   2.917  1.00 65.72 LIG-0.27  OA
ATOM      6 H    ALA E  11       2.173  22.536   3.255  1.00 87.15 LIG 0.16  HD
BRANCH 4 7
ATOM      7  CA  ALA E  10       4.695  22.837   3.882  1.00 66.45 LIG 0.17  C 
ATOM      8  CB  ALA E  10       5.789  22.324   4.816  1.00 58.63 LIG 0.04  C 
BRANCH 7 9
ATOM      9  N   ALA E  10       3.818  23.748   4.603  1.00 75.43 LIG-0.35  N 
ATOM     10  C   ALA E   9       3.384  23.510   5.839  1.00 82.21 LIG 0.24  C 
ATOM     11 O    ALA E   9       3.655  22.483   6.471  1.00 73.75 LIG-0.27  OA
ATOM     12 H    ALA E  10       3.608  24.452   4.157  1.00 75.43 LIG 0.16  HD
BRANCH 10 13
ATOM     13  CA  ALA E   9       2.484  24.577   6.449  1.00 87.65 LIG 0.17  C 
ATOM     14  CB  ALA E   9       1.102  24.011   6.769  1.00 72.21 LIG 0.04  C 
BRANCH 13 15
ATOM     15  N   ALA E   9       2.402  25.685   5.506  1.00 84.24 LIG-0.35  N 
ATOM     16 H    ALA E   9       1.660  25.722   5.071  1.00 84.24 LIG 0.16  HD
ATOM     17  C   ALA E   8       3.391  26.552   5.344  1.00 61.40 LIG 0.26  C 
ATOM     18 O    ALA E   8       4.405  26.541   6.039  1.00 66.21 LIG-0.27  OA
BRANCH 17 19
ATOM     19  CA  ALA E   8       3.196  27.605   4.256  1.00 67.03 LIG 0.40  C 
ATOM     20  N   ALA E   8       4.478  28.319   3.979  1.00 60.26 LIG 0.61  N 
ATOM     21  CB  ALA E   8       2.657  26.966   2.981  1.00 64.64 LIG 0.06  C 
ENDBRANCH 17 19
ENDBRANCH 13 15
ENDBRANCH 10 13
ENDBRANCH 7 9
ENDBRANCH 4 7
ENDBRANCH 1 3
BRANCH 1 22
ATOM     22  C   ALA E  11       0.293  20.982   2.878  1.00 81.78 LIG 0.24  C 
ATOM     23  N   ALA E  12      -0.076  22.217   2.545  1.00 82.91 LIG-0.35  N 
ATOM     24 H    ALA E  12       0.442  22.804   2.187  1.00 82.91 LIG 0.16  HD
ATOM     25 O    ALA E  11      -0.527  20.132   3.249  1.00 89.30 LIG-0.27  OA
BRANCH 23 26
ATOM     26  CA  ALA E  12      -1.443  22.663   2.778  1.00 61.10 LIG 0.17  C 
ATOM     27  CB  ALA E  12      -1.814  22.527   4.263  1.00 65.27 LIG 0.04  C 
BRANCH 26 28
ATOM     28  C   ALA E  12      -1.623  24.099   2.315  1.00 54.59 LIG 0.24  C 
ATOM     29  N   ALA E  13      -2.890  24.488   2.178  1.00 64.78 LIG-0.35  N 
ATOM     30 H    ALA E  13      -3.566  24.000   2.392  1.00 64.78 LIG 0.16  HD
ATOM     31 O    ALA E  12      -0.654  24.840   2.125  1.00 69.11 LIG-0.27  OA
BRANCH 29 32
ATOM     32  CA  ALA E  13      -3.244  25.794   1.645  1.00 54.23 LIG 0.17  C 
ATOM     33  CB  ALA E  13      -2.553  26.892   2.454  1.00 56.27 LIG 0.04  C 
BRANCH 32 34
ATOM     34  C   ALA E  13      -2.846  25.952   0.188  1.00 65.29 LIG 0.24  C 
ATOM     35  N   ALA E  14      -3.689  26.658  -0.556  1.00 85.74 LIG-0.35  N 
ATOM     36 H    ALA E  14      -4.430  26.978  -0.260  1.00 85.74 LIG 0.16  HD
ATOM     37 O    ALA E  13      -1.780  25.501  -0.238  1.00 75.52 LIG-0.27  OA
BRANCH 35 38
ATOM     38  CA  ALA E  14      -3.435  26.958  -1.954  1.00 94.46 LIG 0.16  C 
ATOM     39  CB  ALA E  14      -4.733  27.272  -2.663  1.00106.12 LIG 0.04  C 
BRANCH 38 40
ATOM     40  C   ALA E  14      -2.462  28.125  -2.077  1.00 99.07 LIG 0.22  C 
ATOM     41 O    ALA E  14      -2.191  28.825  -1.101  1.00120.33 LIG-0.29  OA
ENDBRANCH 38 40
ENDBRANCH 35 38
ENDBRANCH 32 34
ENDBRANCH 29 32
ENDBRANCH 26 28
ENDBRANCH 23 26
ENDBRANCH 1 22
TORSDOF 13
ENDMDL
MODEL 197
USER: ADFR SOLUTION from run 178
USER: SCORE 4.872276 LL:  -2.850 LR:  -3.672 RR:   0.000 FEB:   0.206
USER: RMSD 5.208122
USER: SEED 177
USER: STATUS no improvement in best in 40 clusters for 5 generations
USER: GENES 15
USER: genes 0 Translation |==|  0.64696 0.33147 0.60617
USER: genes 1 Rotation |==|  0.81102 0.68868 0.58614 0.83203
USER: genes 2 Torsion [CB]-CA--N-[C] |==|  0.15810
USER: genes 3 Torsion [N]-C--CA-[N] |==|  0.03849
USER: genes 4 Torsion [C]-CA--N-[C] |==|  0.76096
USER: genes 5 Torsion [N]-C--CA-[N] |==|  0.37788
USER: genes 6 Torsion [C]-CA--N-[C] |==|  0.82142
USER: genes 7 Torsion [N]-C--CA-[N] |==|  0.32515
USER: genes 8 Torsion [N]-CA--C-[N] |==|  0.86732
USER: genes 9 Torsion [C]-N--CA-[CB] |==|  0.84443
USER: genes 10 Torsion [N]-CA--C-[N] |==|  0.97977
USER: genes 11 Torsion [C]-N--CA-[CB] |==|  0.86047
USER: genes 12 Torsion [N]-CA--C-[N] |==|  0.89503
USER: genes 13 Torsion [C]-N--CA-[C] |==|  0.64850
USER: genes 14 Torsion [N]-CA--C-[O] |==|  0.96795
ROOT
ATOM      1  CA  ALA E  11       2.087  20.596   3.105  1.00 85.35 LIG 0.17  C 
ATOM      2  CB  ALA E  11       2.446  19.264   3.768  1.00 80.46 LIG 0.04  C 
ENDROOT
BRANCH 1 3
ATOM      3  N   ALA E  11       2.674  21.702   3.852  1.00 87.15 LIG-0.35  N 
ATOM      4  C   ALA E  10       3.992  21.751   4.062  1.00 62.15 LIG 0.24  C 
ATOM      5 O    ALA E  10       4.780  21.004   3.482  1.00 65.72 LIG-0.27  OA
ATOM      6 H    ALA E  11       2.113  22.292   4.130  1.00 87.15 LIG 0.16  HD
BRANCH 4 7
ATOM      7  CA  ALA E  10       4.508  22.783   5.060  1.00 66.45 LIG 0.17  C 
ATOM      8  CB  ALA E  10       5.568  22.160   5.967  1.00 58.63 LIG 0.04  C 
BRANCH 7 9
ATOM      9  N   ALA E  10       3.435  23.342   5.868  1.00 75.43 LIG-0.35  N 
ATOM     10  C   ALA E   9       2.701  24.382   5.479  1.00 82.21 LIG 0.24  C 
ATOM     11 O    ALA E   9       2.883  24.986   4.415  1.00 73.75 LIG-0.27  OA
ATOM     12 H    ALA E  10       3.321  22.940   6.619  1.00 75.43 LIG 0.16  HD
BRANCH 10 13
ATOM     13  CA  ALA E   9       1.610  24.829   6.443  1.00 87.65 LIG 0.17  C 
ATOM     14  CB  ALA E   9       0.240  24.329   5.991  1.00 72.21 LIG 0.04  C 
BRANCH 13 15
ATOM     15  N   ALA E   9       1.648  26.284   6.518  1.00 84.24 LIG-0.35  N 
ATOM     16 H    ALA E   9       0.939  26.670   6.219  1.00 84.24 LIG 0.16  HD
ATOM     17  C   ALA E   8       2.690  26.942   7.006  1.00 61.40 LIG 0.26  C 
ATOM     18 O    ALA E   8       3.655  26.374   7.514  1.00 66.21 LIG-0.27  OA
BRANCH 17 19
ATOM     19  CA  ALA E   8       2.623  28.464   6.936  1.00 67.03 LIG 0.40  C 
ATOM     20  N   ALA E   8       2.630  29.055   8.307  1.00 60.26 LIG 0.61  N 
ATOM     21  CB  ALA E   8       3.782  29.017   6.113  1.00 64.64 LIG 0.06  C 
ENDBRANCH 17 19
ENDBRANCH 13 15
ENDBRANCH 10 13
ENDBRANCH 7 9
ENDBRANCH 4 7
ENDBRANCH 1 3
BRANCH 1 22
ATOM     22  C   ALA E  11       0.574  20.738   2.994  1.00 81.78 LIG 0.24  C 
ATOM     23  N   ALA E  12      -0.101  21.022   4.106  1.00 82.91 LIG-0.35  N 
ATOM     24 H    ALA E  12       0.261  21.239   4.856  1.00 82.91 LIG 0.16  HD
ATOM     25 O    ALA E  11       0.005  20.580   1.907  1.00 89.30 LIG-0.27  OA
BRANCH 23 26
ATOM     26  CA  ALA E  12      -1.557  20.979   4.112  1.00 61.10 LIG 0.17  C 
ATOM     27  CB  ALA E  12      -2.133  21.899   3.026  1.00 65.27 LIG 0.04  C 
BRANCH 26 28
ATOM     28  C   ALA E  12      -2.049  19.554   3.918  1.00 54.59 LIG 0.24  C 
ATOM     29  N   ALA E  13      -1.095  18.667   3.632  1.00 64.78 LIG-0.35  N 
ATOM     30 H    ALA E  13      -0.256  18.856   3.619  1.00 64.78 LIG 0.16  HD
ATOM     31 O    ALA E  12      -3.239  19.259   4.058  1.00 69.11 LIG-0.27  OA
BRANCH 29 32
ATOM     32  CA  ALA E  13      -1.400  17.282   3.313  1.00 54.23 LIG 0.17  C 
ATOM     33  CB  ALA E  13      -2.330  16.694   4.375  1.00 56.27 LIG 0.04  C 
BRANCH 32 34
ATOM     34  C   ALA E  13      -2.068  17.133   1.958  1.00 65.29 LIG 0.24  C 
ATOM     35  N   ALA E  14      -2.935  18.090   1.645  1.00 85.74 LIG-0.35  N 
ATOM     36 H    ALA E  14      -3.142  18.733   2.176  1.00 85.74 LIG 0.16  HD
ATOM     37 O    ALA E  13      -1.767  16.215   1.191  1.00 75.52 LIG-0.27  OA
BRANCH 35 38
ATOM     38  CA  ALA E  14      -3.619  18.137   0.366  1.00 94.46 LIG 0.16  C 
ATOM     39  CB  ALA E  14      -5.092  17.851   0.552  1.00106.12 LIG 0.04  C 
BRANCH 38 40
ATOM     40  C   ALA E  14      -3.417  19.496  -0.294  1.00 99.07 LIG 0.22  C 
ATOM     41 O    ALA E  14      -2.936  20.438   0.338  1.00120.33 LIG-0.29  OA
ENDBRANCH 38 40
ENDBRANCH 35 38
ENDBRANCH 32 34
ENDBRANCH 29 32
ENDBRANCH 26 28
ENDBRANCH 23 26
ENDBRANCH 1 22
TORSDOF 13
ENDMDL
MODEL 198
USER: ADFR SOLUTION from run 7
USER: SCORE 4.728005 LL:  -2.894 LR:  -3.669 RR:   0.000 FEB:   0.209
USER: RMSD 4.872267
USER: SEED 684064
USER: STATUS no improvement in best in 81 clusters for 5 generations
USER: GENES 15
USER: genes 0 Translation |==|  0.62244 0.22265 0.56651
USER: genes 1 Rotation |==|  0.72913 0.75513 0.40345 0.85083
USER: genes 2 Torsion [CB]-CA--N-[C] |==|  0.79697
USER: genes 3 Torsion [N]-C--CA-[N] |==|  0.55718
USER: genes 4 Torsion [C]-CA--N-[C] |==|  0.15585
USER: genes 5 Torsion [N]-C--CA-[N] |==|  0.05616
USER: genes 6 Torsion [C]-CA--N-[C] |==|  0.19222
USER: genes 7 Torsion [N]-C--CA-[N] |==|  0.60424
USER: genes 8 Torsion [N]-CA--C-[N] |==|  0.14525
USER: genes 9 Torsion [C]-N--CA-[CB] |==|  0.84846
USER: genes 10 Torsion [N]-CA--C-[N] |==|  0.38972
USER: genes 11 Torsion [C]-N--CA-[CB] |==|  0.16772
USER: genes 12 Torsion [N]-CA--C-[N] |==|  0.06444
USER: genes 13 Torsion [C]-N--CA-[C] |==|  0.17168
USER: genes 14 Torsion [N]-CA--C-[O] |==|  0.10214
ROOT
ATOM      1  CA  ALA E  11       1.535  18.637   2.391  1.00 85.35 LIG 0.17  C 
ATOM      2  CB  ALA E  11       2.162  17.752   3.471  1.00 80.46 LIG 0.04  C 
ENDROOT
BRANCH 1 3
ATOM      3  N   ALA E  11       2.473  19.679   1.989  1.00 87.15 LIG-0.35  N 
ATOM      4  C   ALA E  10       2.728  20.709   2.800  1.00 62.15 LIG 0.24  C 
ATOM      5 O    ALA E  10       2.360  20.728   3.976  1.00 65.72 LIG-0.27  OA
ATOM      6 H    ALA E  11       2.828  19.569   1.213  1.00 87.15 LIG 0.16  HD
BRANCH 4 7
ATOM      7  CA  ALA E  10       3.507  21.884   2.222  1.00 66.45 LIG 0.17  C 
ATOM      8  CB  ALA E  10       4.574  21.387   1.248  1.00 58.63 LIG 0.04  C 
BRANCH 7 9
ATOM      9  N   ALA E  10       4.128  22.690   3.263  1.00 75.43 LIG-0.35  N 
ATOM     10  C   ALA E   9       4.962  22.186   4.170  1.00 82.21 LIG 0.24  C 
ATOM     11 O    ALA E   9       5.258  20.987   4.232  1.00 73.75 LIG-0.27  OA
ATOM     12 H    ALA E  10       3.906  23.521   3.238  1.00 75.43 LIG 0.16  HD
BRANCH 10 13
ATOM     13  CA  ALA E   9       5.532  23.174   5.179  1.00 87.65 LIG 0.17  C 
ATOM     14  CB  ALA E   9       5.652  22.538   6.562  1.00 72.21 LIG 0.04  C 
BRANCH 13 15
ATOM     15  N   ALA E   9       4.660  24.342   5.203  1.00 84.24 LIG-0.35  N 
ATOM     16 H    ALA E   9       5.014  25.052   4.871  1.00 84.24 LIG 0.16  HD
ATOM     17  C   ALA E   8       3.431  24.297   5.697  1.00 61.40 LIG 0.26  C 
ATOM     18 O    ALA E   8       2.906  23.254   6.081  1.00 66.21 LIG-0.27  OA
BRANCH 17 19
ATOM     19  CA  ALA E   8       2.670  25.620   5.738  1.00 67.03 LIG 0.40  C 
ATOM     20  N   ALA E   8       1.842  25.713   6.978  1.00 60.26 LIG 0.61  N 
ATOM     21  CB  ALA E   8       3.635  26.797   5.654  1.00 64.64 LIG 0.06  C 
ENDBRANCH 17 19
ENDBRANCH 13 15
ENDBRANCH 10 13
ENDBRANCH 7 9
ENDBRANCH 4 7
ENDBRANCH 1 3
BRANCH 1 22
ATOM     22  C   ALA E  11       0.223  19.229   2.891  1.00 81.78 LIG 0.24  C 
ATOM     23  N   ALA E  12      -0.396  20.106   2.103  1.00 82.91 LIG-0.35  N 
ATOM     24 H    ALA E  12      -0.169  20.280   1.291  1.00 82.91 LIG 0.16  HD
ATOM     25 O    ALA E  11      -0.233  18.907   3.995  1.00 89.30 LIG-0.27  OA
BRANCH 23 26
ATOM     26  CA  ALA E  12      -1.543  20.854   2.597  1.00 61.10 LIG 0.17  C 
ATOM     27  CB  ALA E  12      -2.622  19.903   3.137  1.00 65.27 LIG 0.04  C 
BRANCH 26 28
ATOM     28  C   ALA E  12      -1.115  21.838   3.675  1.00 54.59 LIG 0.24  C 
ATOM     29  N   ALA E  13      -1.721  23.024   3.621  1.00 64.78 LIG-0.35  N 
ATOM     30 H    ALA E  13      -2.352  23.213   3.069  1.00 64.78 LIG 0.16  HD
ATOM     31 O    ALA E  12      -0.297  21.524   4.544  1.00 69.11 LIG-0.27  OA
BRANCH 29 32
ATOM     32  CA  ALA E  13      -1.357  24.117   4.508  1.00 54.23 LIG 0.17  C 
ATOM     33  CB  ALA E  13       0.111  24.491   4.301  1.00 56.27 LIG 0.04  C 
BRANCH 32 34
ATOM     34  C   ALA E  13      -2.203  25.356   4.278  1.00 65.29 LIG 0.24  C 
ATOM     35  N   ALA E  14      -3.385  25.138   3.713  1.00 85.74 LIG-0.35  N 
ATOM     36 H    ALA E  14      -3.652  24.363   3.455  1.00 85.74 LIG 0.16  HD
ATOM     37 O    ALA E  13      -1.827  26.469   4.653  1.00 75.52 LIG-0.27  OA
BRANCH 35 38
ATOM     38  CA  ALA E  14      -4.346  26.201   3.475  1.00 94.46 LIG 0.16  C 
ATOM     39  CB  ALA E  14      -4.743  26.845   4.784  1.00106.12 LIG 0.04  C 
BRANCH 38 40
ATOM     40  C   ALA E  14      -3.763  27.239   2.523  1.00 99.07 LIG 0.22  C 
ATOM     41 O    ALA E  14      -3.038  26.899   1.588  1.00120.33 LIG-0.29  OA
ENDBRANCH 38 40
ENDBRANCH 35 38
ENDBRANCH 32 34
ENDBRANCH 29 32
ENDBRANCH 26 28
ENDBRANCH 23 26
ENDBRANCH 1 22
TORSDOF 13
ENDMDL
MODEL 199
USER: ADFR SOLUTION from run 106
USER: SCORE 4.863344 LL:  -1.958 LR:  -3.669 RR:   0.000 FEB:   0.209
USER: RMSD 5.176167
USER: SEED 105
USER: STATUS no improvement in best in 94 clusters for 5 generations
USER: GENES 15
USER: genes 0 Translation |==|  0.57411 0.39912 0.59783
USER: genes 1 Rotation |==|  0.80703 0.57071 0.48593 0.88798
USER: genes 2 Torsion [CB]-CA--N-[C] |==|  0.82414
USER: genes 3 Torsion [N]-C--CA-[N] |==|  0.88896
USER: genes 4 Torsion [C]-CA--N-[C] |==|  0.75888
USER: genes 5 Torsion [N]-C--CA-[N] |==|  0.05918
USER: genes 6 Torsion [C]-CA--N-[C] |==|  0.71747
USER: genes 7 Torsion [N]-C--CA-[N] |==|  0.96188
USER: genes 8 Torsion [N]-CA--C-[N] |==|  0.93642
USER: genes 9 Torsion [C]-N--CA-[CB] |==|  0.83920
USER: genes 10 Torsion [N]-CA--C-[N] |==|  0.41059
USER: genes 11 Torsion [C]-N--CA-[CB] |==|  0.18487
USER: genes 12 Torsion [N]-CA--C-[N] |==|  0.07940
USER: genes 13 Torsion [C]-N--CA-[C] |==|  0.58627
USER: genes 14 Torsion [N]-CA--C-[O] |==|  0.98588
ROOT
ATOM      1  CA  ALA E  11       0.448  21.813   2.955  1.00 85.35 LIG 0.17  C 
ATOM      2  CB  ALA E  11      -0.080  20.720   3.886  1.00 80.46 LIG 0.04  C 
ENDROOT
BRANCH 1 3
ATOM      3  N   ALA E  11       1.505  22.569   3.617  1.00 87.15 LIG-0.35  N 
ATOM      4  C   ALA E  10       1.242  23.278   4.717  1.00 62.15 LIG 0.24  C 
ATOM      5 O    ALA E  10       0.180  23.171   5.332  1.00 65.72 LIG-0.27  OA
ATOM      6 H    ALA E  11       2.279  22.514   3.245  1.00 87.15 LIG 0.16  HD
BRANCH 4 7
ATOM      7  CA  ALA E  10       2.316  24.242   5.207  1.00 66.45 LIG 0.17  C 
ATOM      8  CB  ALA E  10       2.237  25.560   4.438  1.00 58.63 LIG 0.04  C 
BRANCH 7 9
ATOM      9  N   ALA E  10       3.652  23.679   5.082  1.00 75.43 LIG-0.35  N 
ATOM     10  C   ALA E   9       4.209  22.918   6.022  1.00 82.21 LIG 0.24  C 
ATOM     11 O    ALA E   9       3.660  22.650   7.096  1.00 73.75 LIG-0.27  OA
ATOM     12 H    ALA E  10       4.047  23.883   4.346  1.00 75.43 LIG 0.16  HD
BRANCH 10 13
ATOM     13  CA  ALA E   9       5.609  22.400   5.721  1.00 87.65 LIG 0.17  C 
ATOM     14  CB  ALA E   9       6.463  22.361   6.986  1.00 72.21 LIG 0.04  C 
BRANCH 13 15
ATOM     15  N   ALA E   9       6.198  23.265   4.706  1.00 84.24 LIG-0.35  N 
ATOM     16 H    ALA E   9       6.493  24.013   5.011  1.00 84.24 LIG 0.16  HD
ATOM     17  C   ALA E   8       6.266  22.915   3.429  1.00 61.40 LIG 0.26  C 
ATOM     18 O    ALA E   8       5.926  21.804   3.026  1.00 66.21 LIG-0.27  OA
BRANCH 17 19
ATOM     19  CA  ALA E   8       6.826  23.960   2.470  1.00 67.03 LIG 0.40  C 
ATOM     20  N   ALA E   8       6.883  25.301   3.127  1.00 60.26 LIG 0.61  N 
ATOM     21  CB  ALA E   8       8.210  23.551   1.977  1.00 64.64 LIG 0.06  C 
ENDBRANCH 17 19
ENDBRANCH 13 15
ENDBRANCH 10 13
ENDBRANCH 7 9
ENDBRANCH 4 7
ENDBRANCH 1 3
BRANCH 1 22
ATOM     22  C   ALA E  11      -0.692  22.721   2.509  1.00 81.78 LIG 0.24  C 
ATOM     23  N   ALA E  12      -0.833  23.886   3.140  1.00 82.91 LIG-0.35  N 
ATOM     24 H    ALA E  12      -0.266  24.211   3.700  1.00 82.91 LIG 0.16  HD
ATOM     25 O    ALA E  11      -1.458  22.372   1.603  1.00 89.30 LIG-0.27  OA
BRANCH 23 26
ATOM     26  CA  ALA E  12      -2.009  24.711   2.902  1.00 61.10 LIG 0.17  C 
ATOM     27  CB  ALA E  12      -2.136  25.061   1.411  1.00 65.27 LIG 0.04  C 
BRANCH 26 28
ATOM     28  C   ALA E  12      -3.263  24.005   3.391  1.00 54.59 LIG 0.24  C 
ATOM     29  N   ALA E  13      -4.218  24.815   3.848  1.00 64.78 LIG-0.35  N 
ATOM     30 H    ALA E  13      -4.172  25.673   3.817  1.00 64.78 LIG 0.16  HD
ATOM     31 O    ALA E  12      -3.379  22.778   3.322  1.00 69.11 LIG-0.27  OA
BRANCH 29 32
ATOM     32  CA  ALA E  13      -5.440  24.305   4.450  1.00 54.23 LIG 0.17  C 
ATOM     33  CB  ALA E  13      -5.118  23.598   5.767  1.00 56.27 LIG 0.04  C 
BRANCH 32 34
ATOM     34  C   ALA E  13      -6.449  25.403   4.731  1.00 65.29 LIG 0.24  C 
ATOM     35  N   ALA E  14      -6.383  26.455   3.922  1.00 85.74 LIG-0.35  N 
ATOM     36 H    ALA E  14      -5.793  26.540   3.303  1.00 85.74 LIG 0.16  HD
ATOM     37 O    ALA E  13      -7.302  25.280   5.614  1.00 75.52 LIG-0.27  OA
BRANCH 35 38
ATOM     38  CA  ALA E  14      -7.311  27.568   4.010  1.00 94.46 LIG 0.16  C 
ATOM     39  CB  ALA E  14      -6.790  28.603   4.981  1.00106.12 LIG 0.04  C 
BRANCH 38 40
ATOM     40  C   ALA E  14      -7.528  28.187   2.634  1.00 99.07 LIG 0.22  C 
ATOM     41 O    ALA E  14      -6.884  27.798   1.659  1.00120.33 LIG-0.29  OA
ENDBRANCH 38 40
ENDBRANCH 35 38
ENDBRANCH 32 34
ENDBRANCH 29 32
ENDBRANCH 26 28
ENDBRANCH 23 26
ENDBRANCH 1 22
TORSDOF 13
ENDMDL
MODEL 200
USER: ADFR SOLUTION from run 67
USER: SCORE 5.374906 LL:  -2.757 LR:  -3.667 RR:   0.000 FEB:   0.211
USER: RMSD 4.923829
USER: SEED 66
USER: STATUS searching
USER: GENES 15
USER: genes 0 Translation |==|  0.63949 0.32021 0.61628
USER: genes 1 Rotation |==|  0.81729 0.72784 0.58068 0.80151
USER: genes 2 Torsion [CB]-CA--N-[C] |==|  0.15285
USER: genes 3 Torsion [N]-C--CA-[N] |==|  0.01903
USER: genes 4 Torsion [C]-CA--N-[C] |==|  0.78701
USER: genes 5 Torsion [N]-C--CA-[N] |==|  0.36111
USER: genes 6 Torsion [C]-CA--N-[C] |==|  0.83544
USER: genes 7 Torsion [N]-C--CA-[N] |==|  0.31204
USER: genes 8 Torsion [N]-CA--C-[N] |==|  0.13546
USER: genes 9 Torsion [C]-N--CA-[CB] |==|  0.50000
USER: genes 10 Torsion [N]-CA--C-[N] |==|  0.42423
USER: genes 11 Torsion [C]-N--CA-[CB] |==|  0.17169
USER: genes 12 Torsion [N]-CA--C-[N] |==|  0.10547
USER: genes 13 Torsion [C]-N--CA-[C] |==|  0.54892
USER: genes 14 Torsion [N]-CA--C-[O] |==|  0.03864
ROOT
ATOM      1  CA  ALA E  11       1.918  20.393   3.287  1.00 85.35 LIG 0.17  C 
ATOM      2  CB  ALA E  11       2.502  19.073   3.794  1.00 80.46 LIG 0.04  C 
ENDROOT
BRANCH 1 3
ATOM      3  N   ALA E  11       2.523  21.514   3.997  1.00 87.15 LIG-0.35  N 
ATOM      4  C   ALA E  10       3.850  21.662   4.022  1.00 62.15 LIG 0.24  C 
ATOM      5 O    ALA E  10       4.600  21.003   3.300  1.00 65.72 LIG-0.27  OA
ATOM      6 H    ALA E  11       1.966  22.046   4.380  1.00 87.15 LIG 0.16  HD
BRANCH 4 7
ATOM      7  CA  ALA E  10       4.426  22.693   4.987  1.00 66.45 LIG 0.17  C 
ATOM      8  CB  ALA E  10       5.539  22.069   5.828  1.00 58.63 LIG 0.04  C 
BRANCH 7 9
ATOM      9  N   ALA E  10       3.404  23.253   5.859  1.00 75.43 LIG-0.35  N 
ATOM     10  C   ALA E   9       2.528  24.170   5.453  1.00 82.21 LIG 0.24  C 
ATOM     11 O    ALA E   9       2.524  24.651   4.315  1.00 73.75 LIG-0.27  OA
ATOM     12 H    ALA E  10       3.420  22.937   6.659  1.00 75.43 LIG 0.16  HD
BRANCH 10 13
ATOM     13  CA  ALA E   9       1.518  24.636   6.493  1.00 87.65 LIG 0.17  C 
ATOM     14  CB  ALA E   9       0.127  24.084   6.192  1.00 72.21 LIG 0.04  C 
BRANCH 13 15
ATOM     15  N   ALA E   9       1.524  26.093   6.501  1.00 84.24 LIG-0.35  N 
ATOM     16 H    ALA E   9       0.762  26.449   6.319  1.00 84.24 LIG 0.16  HD
ATOM     17  C   ALA E   8       2.616  26.796   6.766  1.00 61.40 LIG 0.26  C 
ATOM     18 O    ALA E   8       3.673  26.275   7.116  1.00 66.21 LIG-0.27  OA
BRANCH 17 19
ATOM     19  CA  ALA E   8       2.491  28.312   6.647  1.00 67.03 LIG 0.40  C 
ATOM     20  N   ALA E   8       2.610  28.958   7.989  1.00 60.26 LIG 0.61  N 
ATOM     21  CB  ALA E   8       3.545  28.866   5.695  1.00 64.64 LIG 0.06  C 
ENDBRANCH 17 19
ENDBRANCH 13 15
ENDBRANCH 10 13
ENDBRANCH 7 9
ENDBRANCH 4 7
ENDBRANCH 1 3
BRANCH 1 22
ATOM     22  C   ALA E  11       0.402  20.390   3.435  1.00 81.78 LIG 0.24  C 
ATOM     23  N   ALA E  12      -0.241  21.533   3.203  1.00 82.91 LIG-0.35  N 
ATOM     24 H    ALA E  12       0.121  22.240   2.870  1.00 82.91 LIG 0.16  HD
ATOM     25 O    ALA E  11      -0.196  19.361   3.772  1.00 89.30 LIG-0.27  OA
BRANCH 23 26
ATOM     26  CA  ALA E  12      -1.659  21.654   3.514  1.00 61.10 LIG 0.17  C 
ATOM     27  CB  ALA E  12      -2.177  23.056   3.161  1.00 65.27 LIG 0.04  C 
BRANCH 26 28
ATOM     28  C   ALA E  12      -2.458  20.591   2.777  1.00 54.59 LIG 0.24  C 
ATOM     29  N   ALA E  13      -3.593  20.231   3.375  1.00 64.78 LIG-0.35  N 
ATOM     30 H    ALA E  13      -3.898  20.605   4.087  1.00 64.78 LIG 0.16  HD
ATOM     31 O    ALA E  12      -2.082  20.141   1.691  1.00 69.11 LIG-0.27  OA
BRANCH 29 32
ATOM     32  CA  ALA E  13      -4.428  19.156   2.863  1.00 54.23 LIG 0.17  C 
ATOM     33  CB  ALA E  13      -3.651  17.839   2.880  1.00 56.27 LIG 0.04  C 
BRANCH 32 34
ATOM     34  C   ALA E  13      -5.697  18.971   3.675  1.00 65.29 LIG 0.24  C 
ATOM     35  N   ALA E  14      -6.261  20.093   4.108  1.00 85.74 LIG-0.35  N 
ATOM     36 H    ALA E  14      -5.924  20.874   3.980  1.00 85.74 LIG 0.16  HD
ATOM     37 O    ALA E  13      -6.188  17.854   3.854  1.00 75.52 LIG-0.27  OA
BRANCH 35 38
ATOM     38  CA  ALA E  14      -7.511  20.106   4.847  1.00 94.46 LIG 0.16  C 
ATOM     39  CB  ALA E  14      -7.280  19.645   6.268  1.00106.12 LIG 0.04  C 
BRANCH 38 40
ATOM     40  C   ALA E  14      -8.122  21.502   4.830  1.00 99.07 LIG 0.22  C 
ATOM     41 O    ALA E  14      -7.712  22.361   4.049  1.00120.33 LIG-0.29  OA
ENDBRANCH 38 40
ENDBRANCH 35 38
ENDBRANCH 32 34
ENDBRANCH 29 32
ENDBRANCH 26 28
ENDBRANCH 23 26
ENDBRANCH 1 22
TORSDOF 13
ENDMDL
MODEL 201
USER: ADFR SOLUTION from run 166
USER: SCORE 4.141827 LL:  -2.585 LR:  -3.663 RR:   0.000 FEB:   0.215
USER: RMSD 4.283967
USER: SEED 165
USER: STATUS no improvement in best in 98 clusters for 5 generations
USER: GENES 15
USER: genes 0 Translation |==|  0.63927 0.40410 0.56886
USER: genes 1 Rotation |==|  0.73674 0.60641 0.42045 0.91988
USER: genes 2 Torsion [CB]-CA--N-[C] |==|  0.15400
USER: genes 3 Torsion [N]-C--CA-[N] |==|  0.22066
USER: genes 4 Torsion [C]-CA--N-[C] |==|  0.16111
USER: genes 5 Torsion [N]-C--CA-[N] |==|  0.21625
USER: genes 6 Torsion [C]-CA--N-[C] |==|  0.75368
USER: genes 7 Torsion [N]-C--CA-[N] |==|  0.40649
USER: genes 8 Torsion [N]-CA--C-[N] |==|  0.54808
USER: genes 9 Torsion [C]-N--CA-[CB] |==|  0.84435
USER: genes 10 Torsion [N]-CA--C-[N] |==|  0.41245
USER: genes 11 Torsion [C]-N--CA-[CB] |==|  0.52778
USER: genes 12 Torsion [N]-CA--C-[N] |==|  0.40629
USER: genes 13 Torsion [C]-N--CA-[C] |==|  0.76394
USER: genes 14 Torsion [N]-CA--C-[O] |==|  0.98581
ROOT
ATOM      1  CA  ALA E  11       1.914  21.903   2.434  1.00 85.35 LIG 0.17  C 
ATOM      2  CB  ALA E  11       1.625  21.222   3.773  1.00 80.46 LIG 0.04  C 
ENDROOT
BRANCH 1 3
ATOM      3  N   ALA E  11       3.130  22.702   2.529  1.00 87.15 LIG-0.35  N 
ATOM      4  C   ALA E  10       4.276  22.143   2.928  1.00 62.15 LIG 0.24  C 
ATOM      5 O    ALA E  10       4.413  20.924   3.033  1.00 65.72 LIG-0.27  OA
ATOM      6 H    ALA E  11       3.040  23.530   2.313  1.00 87.15 LIG 0.16  HD
BRANCH 4 7
ATOM      7  CA  ALA E  10       5.438  23.075   3.253  1.00 66.45 LIG 0.17  C 
ATOM      8  CB  ALA E  10       6.765  22.324   3.155  1.00 58.63 LIG 0.04  C 
BRANCH 7 9
ATOM      9  N   ALA E  10       5.305  23.670   4.575  1.00 75.43 LIG-0.35  N 
ATOM     10  C   ALA E   9       5.209  22.947   5.689  1.00 82.21 LIG 0.24  C 
ATOM     11 O    ALA E   9       5.189  21.711   5.700  1.00 73.75 LIG-0.27  OA
ATOM     12 H    ALA E  10       5.294  24.530   4.569  1.00 75.43 LIG 0.16  HD
BRANCH 10 13
ATOM     13  CA  ALA E   9       5.090  23.733   6.988  1.00 87.65 LIG 0.17  C 
ATOM     14  CB  ALA E   9       5.482  22.872   8.187  1.00 72.21 LIG 0.04  C 
BRANCH 13 15
ATOM     15  N   ALA E   9       3.717  24.209   7.099  1.00 84.24 LIG-0.35  N 
ATOM     16 H    ALA E   9       3.192  23.673   7.522  1.00 84.24 LIG 0.16  HD
ATOM     17  C   ALA E   8       3.325  25.368   6.589  1.00 61.40 LIG 0.26  C 
ATOM     18 O    ALA E   8       4.106  26.163   6.071  1.00 66.21 LIG-0.27  OA
BRANCH 17 19
ATOM     19  CA  ALA E   8       1.838  25.689   6.704  1.00 67.03 LIG 0.40  C 
ATOM     20  N   ALA E   8       1.629  27.158   6.883  1.00 60.26 LIG 0.61  N 
ATOM     21  CB  ALA E   8       1.083  25.191   5.477  1.00 64.64 LIG 0.06  C 
ENDBRANCH 17 19
ENDBRANCH 13 15
ENDBRANCH 10 13
ENDBRANCH 7 9
ENDBRANCH 4 7
ENDBRANCH 1 3
BRANCH 1 22
ATOM     22  C   ALA E  11       0.722  22.749   2.004  1.00 81.78 LIG 0.24  C 
ATOM     23  N   ALA E  12      -0.495  22.250   2.214  1.00 82.91 LIG-0.35  N 
ATOM     24 H    ALA E  12      -0.661  21.539   2.670  1.00 82.91 LIG 0.16  HD
ATOM     25 O    ALA E  11       0.892  23.852   1.470  1.00 89.30 LIG-0.27  OA
BRANCH 23 26
ATOM     26  CA  ALA E  12      -1.666  22.912   1.655  1.00 61.10 LIG 0.17  C 
ATOM     27  CB  ALA E  12      -1.731  24.378   2.108  1.00 65.27 LIG 0.04  C 
BRANCH 26 28
ATOM     28  C   ALA E  12      -1.653  22.825   0.137  1.00 54.59 LIG 0.24  C 
ATOM     29  N   ALA E  13      -2.859  22.772  -0.429  1.00 64.78 LIG-0.35  N 
ATOM     30 H    ALA E  13      -3.596  22.845   0.008  1.00 64.78 LIG 0.16  HD
ATOM     31 O    ALA E  12      -0.597  22.843  -0.500  1.00 69.11 LIG-0.27  OA
BRANCH 29 32
ATOM     32  CA  ALA E  13      -3.031  22.582  -1.860  1.00 54.23 LIG 0.17  C 
ATOM     33  CB  ALA E  13      -4.494  22.810  -2.245  1.00 56.27 LIG 0.04  C 
BRANCH 32 34
ATOM     34  C   ALA E  13      -2.170  23.527  -2.678  1.00 65.29 LIG 0.24  C 
ATOM     35  N   ALA E  14      -1.717  23.033  -3.825  1.00 85.74 LIG-0.35  N 
ATOM     36 H    ALA E  14      -1.860  22.226  -4.083  1.00 85.74 LIG 0.16  HD
ATOM     37 O    ALA E  13      -1.969  24.689  -2.314  1.00 75.52 LIG-0.27  OA
BRANCH 35 38
ATOM     38  CA  ALA E  14      -0.929  23.819  -4.757  1.00 94.46 LIG 0.16  C 
ATOM     39  CB  ALA E  14      -0.028  22.916  -5.568  1.00106.12 LIG 0.04  C 
BRANCH 38 40
ATOM     40  C   ALA E  14      -1.842  24.626  -5.674  1.00 99.07 LIG 0.22  C 
ATOM     41 O    ALA E  14      -3.065  24.486  -5.627  1.00120.33 LIG-0.29  OA
ENDBRANCH 38 40
ENDBRANCH 35 38
ENDBRANCH 32 34
ENDBRANCH 29 32
ENDBRANCH 26 28
ENDBRANCH 23 26
ENDBRANCH 1 22
TORSDOF 13
ENDMDL
MODEL 202
USER: ADFR SOLUTION from run 190
USER: SCORE 3.773050 LL:  -2.990 LR:  -3.660 RR:   0.000 FEB:   0.218
USER: RMSD 5.404287
USER: SEED 189
USER: STATUS no improvement in best in 121 clusters for 5 generations
USER: GENES 15
USER: genes 0 Translation |==|  0.61378 0.32134 0.61772
USER: genes 1 Rotation |==|  0.46115 0.34729 0.55224 0.97164
USER: genes 2 Torsion [CB]-CA--N-[C] |==|  0.40404
USER: genes 3 Torsion [N]-C--CA-[N] |==|  0.12075
USER: genes 4 Torsion [C]-CA--N-[C] |==|  0.20000
USER: genes 5 Torsion [N]-C--CA-[N] |==|  0.94344
USER: genes 6 Torsion [C]-CA--N-[C] |==|  0.81808
USER: genes 7 Torsion [N]-C--CA-[N] |==|  0.43835
USER: genes 8 Torsion [N]-CA--C-[N] |==|  0.85556
USER: genes 9 Torsion [C]-N--CA-[CB] |==|  0.15055
USER: genes 10 Torsion [N]-CA--C-[N] |==|  0.05715
USER: genes 11 Torsion [C]-N--CA-[CB] |==|  0.22167
USER: genes 12 Torsion [N]-CA--C-[N] |==|  0.04574
USER: genes 13 Torsion [C]-N--CA-[C] |==|  0.52028
USER: genes 14 Torsion [N]-CA--C-[O] |==|  0.95555
ROOT
ATOM      1  CA  ALA E  11       1.340  20.413   3.313  1.00 85.35 LIG 0.17  C 
ATOM      2  CB  ALA E  11      -0.113  20.773   3.631  1.00 80.46 LIG 0.04  C 
ENDROOT
BRANCH 1 3
ATOM      3  N   ALA E  11       2.165  21.616   3.307  1.00 87.15 LIG-0.35  N 
ATOM      4  C   ALA E  10       3.430  21.570   3.733  1.00 62.15 LIG 0.24  C 
ATOM      5 O    ALA E  10       4.014  20.507   3.950  1.00 65.72 LIG-0.27  OA
ATOM      6 H    ALA E  11       1.774  22.324   3.015  1.00 87.15 LIG 0.16  HD
BRANCH 4 7
ATOM      7  CA  ALA E  10       4.151  22.897   3.945  1.00 66.45 LIG 0.17  C 
ATOM      8  CB  ALA E  10       5.434  22.682   4.745  1.00 58.63 LIG 0.04  C 
BRANCH 7 9
ATOM      9  N   ALA E  10       3.307  23.873   4.619  1.00 75.43 LIG-0.35  N 
ATOM     10  C   ALA E   9       2.986  23.786   5.907  1.00 82.21 LIG 0.24  C 
ATOM     11 O    ALA E   9       3.344  22.856   6.638  1.00 73.75 LIG-0.27  OA
ATOM     12 H    ALA E  10       3.037  24.509   4.107  1.00 75.43 LIG 0.16  HD
BRANCH 10 13
ATOM     13  CA  ALA E   9       2.105  24.902   6.454  1.00 87.65 LIG 0.17  C 
ATOM     14  CB  ALA E   9       0.655  24.441   6.586  1.00 72.21 LIG 0.04  C 
BRANCH 13 15
ATOM     15  N   ALA E   9       2.221  26.044   5.557  1.00 84.24 LIG-0.35  N 
ATOM     16 H    ALA E   9       1.493  26.242   5.143  1.00 84.24 LIG 0.16  HD
ATOM     17  C   ALA E   8       3.357  26.710   5.402  1.00 61.40 LIG 0.26  C 
ATOM     18 O    ALA E   8       4.362  26.474   6.069  1.00 66.21 LIG-0.27  OA
BRANCH 17 19
ATOM     19  CA  ALA E   8       3.350  27.826   4.361  1.00 67.03 LIG 0.40  C 
ATOM     20  N   ALA E   8       4.436  28.813   4.639  1.00 60.26 LIG 0.61  N 
ATOM     21  CB  ALA E   8       3.501  27.252   2.956  1.00 64.64 LIG 0.06  C 
ENDBRANCH 17 19
ENDBRANCH 13 15
ENDBRANCH 10 13
ENDBRANCH 7 9
ENDBRANCH 4 7
ENDBRANCH 1 3
BRANCH 1 22
ATOM     22  C   ALA E  11       1.422  19.674   1.983  1.00 81.78 LIG 0.24  C 
ATOM     23  N   ALA E  12       1.190  20.374   0.875  1.00 82.91 LIG-0.35  N 
ATOM     24 H    ALA E  12       1.107  21.230   0.845  1.00 82.91 LIG 0.16  HD
ATOM     25 O    ALA E  11       1.682  18.465   1.950  1.00 89.30 LIG-0.27  OA
BRANCH 23 26
ATOM     26  CA  ALA E  12       1.058  19.696  -0.408  1.00 61.10 LIG 0.17  C 
ATOM     27  CB  ALA E  12      -0.013  18.597  -0.335  1.00 65.27 LIG 0.04  C 
BRANCH 26 28
ATOM     28  C   ALA E  12       0.725  20.692  -1.506  1.00 54.59 LIG 0.24  C 
ATOM     29  N   ALA E  13       1.033  21.958  -1.225  1.00 64.78 LIG-0.35  N 
ATOM     30 H    ALA E  13       1.447  22.202  -0.511  1.00 64.78 LIG 0.16  HD
ATOM     31 O    ALA E  12       0.242  20.327  -2.581  1.00 69.11 LIG-0.27  OA
BRANCH 29 32
ATOM     32  CA  ALA E  13       0.688  23.053  -2.117  1.00 54.23 LIG 0.17  C 
ATOM     33  CB  ALA E  13      -0.781  23.434  -1.933  1.00 56.27 LIG 0.04  C 
BRANCH 32 34
ATOM     34  C   ALA E  13       1.536  24.288  -1.873  1.00 65.29 LIG 0.24  C 
ATOM     35  N   ALA E  14       2.643  24.086  -1.167  1.00 85.74 LIG-0.35  N 
ATOM     36 H    ALA E  14       2.859  23.324  -0.832  1.00 85.74 LIG 0.16  HD
ATOM     37 O    ALA E  13       1.234  25.381  -2.359  1.00 75.52 LIG-0.27  OA
BRANCH 35 38
ATOM     38  CA  ALA E  14       3.599  25.143  -0.892  1.00 94.46 LIG 0.16  C 
ATOM     39  CB  ALA E  14       2.966  26.203  -0.020  1.00106.12 LIG 0.04  C 
BRANCH 38 40
ATOM     40  C   ALA E  14       4.842  24.571  -0.220  1.00 99.07 LIG 0.22  C 
ATOM     41 O    ALA E  14       4.828  23.446   0.279  1.00120.33 LIG-0.29  OA
ENDBRANCH 38 40
ENDBRANCH 35 38
ENDBRANCH 32 34
ENDBRANCH 29 32
ENDBRANCH 26 28
ENDBRANCH 23 26
ENDBRANCH 1 22
TORSDOF 13
ENDMDL
MODEL 203
USER: ADFR SOLUTION from run 23
USER: SCORE 4.907413 LL:  -2.885 LR:  -3.664 RR:   0.000 FEB:   0.214
USER: RMSD 4.140163
USER: SEED 22
USER: STATUS no improvement in best in 83 clusters for 5 generations
USER: GENES 15
USER: genes 0 Translation |==|  0.51575 0.43674 0.72601
USER: genes 1 Rotation |==|  0.48412 0.37257 0.49753 0.98322
USER: genes 2 Torsion [CB]-CA--N-[C] |==|  0.51111
USER: genes 3 Torsion [N]-C--CA-[N] |==|  0.43319
USER: genes 4 Torsion [C]-CA--N-[C] |==|  0.79303
USER: genes 5 Torsion [N]-C--CA-[N] |==|  0.03698
USER: genes 6 Torsion [C]-CA--N-[C] |==|  0.75148
USER: genes 7 Torsion [N]-C--CA-[N] |==|  0.87389
USER: genes 8 Torsion [N]-CA--C-[N] |==|  0.37808
USER: genes 9 Torsion [C]-N--CA-[CB] |==|  0.45896
USER: genes 10 Torsion [N]-CA--C-[N] |==|  0.39967
USER: genes 11 Torsion [C]-N--CA-[CB] |==|  0.85721
USER: genes 12 Torsion [N]-CA--C-[N] |==|  0.89040
USER: genes 13 Torsion [C]-N--CA-[C] |==|  0.77770
USER: genes 14 Torsion [N]-CA--C-[O] |==|  0.97513
ROOT
ATOM      1  CA  ALA E  11      -0.866  22.490   5.262  1.00 85.35 LIG 0.17  C 
ATOM      2  CB  ALA E  11      -2.186  23.055   5.791  1.00 80.46 LIG 0.04  C 
ENDROOT
BRANCH 1 3
ATOM      3  N   ALA E  11       0.177  23.509   5.324  1.00 87.15 LIG-0.35  N 
ATOM      4  C   ALA E  10       1.395  23.260   4.838  1.00 62.15 LIG 0.24  C 
ATOM      5 O    ALA E  10       1.639  22.269   4.148  1.00 65.72 LIG-0.27  OA
ATOM      6 H    ALA E  11      -0.061  24.252   5.688  1.00 87.15 LIG 0.16  HD
BRANCH 4 7
ATOM      7  CA  ALA E  10       2.501  24.258   5.163  1.00 66.45 LIG 0.17  C 
ATOM      8  CB  ALA E  10       2.430  25.456   4.216  1.00 58.63 LIG 0.04  C 
BRANCH 7 9
ATOM      9  N   ALA E  10       3.821  23.650   5.090  1.00 75.43 LIG-0.35  N 
ATOM     10  C   ALA E   9       4.290  22.821   6.020  1.00 82.21 LIG 0.24  C 
ATOM     11 O    ALA E   9       3.663  22.518   7.042  1.00 73.75 LIG-0.27  OA
ATOM     12 H    ALA E  10       4.270  23.877   4.392  1.00 75.43 LIG 0.16  HD
BRANCH 10 13
ATOM     13  CA  ALA E   9       5.687  22.266   5.779  1.00 87.65 LIG 0.17  C 
ATOM     14  CB  ALA E   9       6.523  22.311   7.056  1.00 72.21 LIG 0.04  C 
BRANCH 13 15
ATOM     15  N   ALA E   9       6.301  23.046   4.712  1.00 84.24 LIG-0.35  N 
ATOM     16 H    ALA E   9       6.745  23.729   4.986  1.00 84.24 LIG 0.16  HD
ATOM     17  C   ALA E   8       6.176  22.718   3.433  1.00 61.40 LIG 0.26  C 
ATOM     18 O    ALA E   8       5.618  21.687   3.063  1.00 66.21 LIG-0.27  OA
BRANCH 17 19
ATOM     19  CA  ALA E   8       6.797  23.680   2.425  1.00 67.03 LIG 0.40  C 
ATOM     20  N   ALA E   8       6.456  25.093   2.766  1.00 60.26 LIG 0.61  N 
ATOM     21  CB  ALA E   8       8.310  23.498   2.369  1.00 64.64 LIG 0.06  C 
ENDBRANCH 17 19
ENDBRANCH 13 15
ENDBRANCH 10 13
ENDBRANCH 7 9
ENDBRANCH 4 7
ENDBRANCH 1 3
BRANCH 1 22
ATOM     22  C   ALA E  11      -1.048  21.963   3.844  1.00 81.78 LIG 0.24  C 
ATOM     23  N   ALA E  12      -1.176  20.647   3.689  1.00 82.91 LIG-0.35  N 
ATOM     24 H    ALA E  12      -1.273  20.085   4.333  1.00 82.91 LIG 0.16  HD
ATOM     25 O    ALA E  11      -1.062  22.740   2.881  1.00 89.30 LIG-0.27  OA
BRANCH 23 26
ATOM     26  CA  ALA E  12      -1.156  20.060   2.356  1.00 61.10 LIG 0.17  C 
ATOM     27  CB  ALA E  12      -0.950  18.540   2.432  1.00 65.27 LIG 0.04  C 
BRANCH 26 28
ATOM     28  C   ALA E  12      -2.442  20.386   1.612  1.00 54.59 LIG 0.24  C 
ATOM     29  N   ALA E  13      -2.291  20.601   0.305  1.00 64.78 LIG-0.35  N 
ATOM     30 H    ALA E  13      -1.546  20.504  -0.113  1.00 64.78 LIG 0.16  HD
ATOM     31 O    ALA E  12      -3.532  20.405   2.189  1.00 69.11 LIG-0.27  OA
BRANCH 29 32
ATOM     32  CA  ALA E  13      -3.397  21.026  -0.539  1.00 54.23 LIG 0.17  C 
ATOM     33  CB  ALA E  13      -4.594  20.097  -0.337  1.00 56.27 LIG 0.04  C 
BRANCH 32 34
ATOM     34  C   ALA E  13      -3.839  22.447  -0.242  1.00 65.29 LIG 0.24  C 
ATOM     35  N   ALA E  14      -3.850  22.781   1.044  1.00 85.74 LIG-0.35  N 
ATOM     36 H    ALA E  14      -3.659  22.232   1.677  1.00 85.74 LIG 0.16  HD
ATOM     37 O    ALA E  13      -4.106  23.239  -1.149  1.00 75.52 LIG-0.27  OA
BRANCH 35 38
ATOM     38  CA  ALA E  14      -4.188  24.116   1.502  1.00 94.46 LIG 0.16  C 
ATOM     39  CB  ALA E  14      -4.645  24.072   2.942  1.00106.12 LIG 0.04  C 
BRANCH 38 40
ATOM     40  C   ALA E  14      -2.991  25.048   1.349  1.00 99.07 LIG 0.22  C 
ATOM     41 O    ALA E  14      -1.882  24.606   1.047  1.00120.33 LIG-0.29  OA
ENDBRANCH 38 40
ENDBRANCH 35 38
ENDBRANCH 32 34
ENDBRANCH 29 32
ENDBRANCH 26 28
ENDBRANCH 23 26
ENDBRANCH 1 22
TORSDOF 13
ENDMDL
MODEL 204
USER: ADFR SOLUTION from run 70
USER: SCORE 3.859644 LL:  -2.785 LR:  -3.664 RR:   0.000 FEB:   0.214
USER: RMSD 4.819893
USER: SEED 69
USER: STATUS no improvement in best in 94 clusters for 5 generations
USER: GENES 15
USER: genes 0 Translation |==|  0.52037 0.45066 0.72798
USER: genes 1 Rotation |==|  0.50180 0.39497 0.48088 0.98847
USER: genes 2 Torsion [CB]-CA--N-[C] |==|  0.48190
USER: genes 3 Torsion [N]-C--CA-[N] |==|  0.43307
USER: genes 4 Torsion [C]-CA--N-[C] |==|  0.79284
USER: genes 5 Torsion [N]-C--CA-[N] |==|  0.04746
USER: genes 6 Torsion [C]-CA--N-[C] |==|  0.73644
USER: genes 7 Torsion [N]-C--CA-[N] |==|  0.53867
USER: genes 8 Torsion [N]-CA--C-[N] |==|  0.83352
USER: genes 9 Torsion [C]-N--CA-[CB] |==|  0.17246
USER: genes 10 Torsion [N]-CA--C-[N] |==|  0.10382
USER: genes 11 Torsion [C]-N--CA-[CB] |==|  0.49034
USER: genes 12 Torsion [N]-CA--C-[N] |==|  0.45815
USER: genes 13 Torsion [C]-N--CA-[C] |==|  0.77749
USER: genes 14 Torsion [N]-CA--C-[O] |==|  0.96974
ROOT
ATOM      1  CA  ALA E  11      -0.762  22.741   5.298  1.00 85.35 LIG 0.17  C 
ATOM      2  CB  ALA E  11      -1.999  23.315   5.990  1.00 80.46 LIG 0.04  C 
ENDROOT
BRANCH 1 3
ATOM      3  N   ALA E  11       0.334  23.702   5.350  1.00 87.15 LIG-0.35  N 
ATOM      4  C   ALA E  10       1.552  23.362   4.920  1.00 62.15 LIG 0.24  C 
ATOM      5 O    ALA E  10       1.762  22.327   4.287  1.00 65.72 LIG-0.27  OA
ATOM      6 H    ALA E  11       0.127  24.474   5.669  1.00 87.15 LIG 0.16  HD
BRANCH 4 7
ATOM      7  CA  ALA E  10       2.701  24.312   5.238  1.00 66.45 LIG 0.17  C 
ATOM      8  CB  ALA E  10       2.732  25.464   4.234  1.00 58.63 LIG 0.04  C 
BRANCH 7 9
ATOM      9  N   ALA E  10       3.987  23.630   5.243  1.00 75.43 LIG-0.35  N 
ATOM     10  C   ALA E   9       4.375  22.823   6.228  1.00 82.21 LIG 0.24  C 
ATOM     11 O    ALA E   9       3.698  22.608   7.240  1.00 73.75 LIG-0.27  OA
ATOM     12 H    ALA E  10       4.471  23.796   4.552  1.00 75.43 LIG 0.16  HD
BRANCH 10 13
ATOM     13  CA  ALA E   9       5.746  22.180   6.065  1.00 87.65 LIG 0.17  C 
ATOM     14  CB  ALA E   9       6.503  22.160   7.391  1.00 72.21 LIG 0.04  C 
BRANCH 13 15
ATOM     15  N   ALA E   9       6.473  22.927   5.047  1.00 84.24 LIG-0.35  N 
ATOM     16 H    ALA E   9       6.884  23.621   5.346  1.00 84.24 LIG 0.16  HD
ATOM     17  C   ALA E   8       6.491  22.556   3.774  1.00 61.40 LIG 0.26  C 
ATOM     18 O    ALA E   8       5.977  21.511   3.379  1.00 66.21 LIG-0.27  OA
BRANCH 17 19
ATOM     19  CA  ALA E   8       7.218  23.487   2.809  1.00 67.03 LIG 0.40  C 
ATOM     20  N   ALA E   8       6.884  23.145   1.394  1.00 60.26 LIG 0.61  N 
ATOM     21  CB  ALA E   8       6.870  24.943   3.100  1.00 64.64 LIG 0.06  C 
ENDBRANCH 17 19
ENDBRANCH 13 15
ENDBRANCH 10 13
ENDBRANCH 7 9
ENDBRANCH 4 7
ENDBRANCH 1 3
BRANCH 1 22
ATOM     22  C   ALA E  11      -1.094  22.350   3.863  1.00 81.78 LIG 0.24  C 
ATOM     23  N   ALA E  12      -1.474  23.321   3.034  1.00 82.91 LIG-0.35  N 
ATOM     24 H    ALA E  12      -1.439  24.161   3.215  1.00 82.91 LIG 0.16  HD
ATOM     25 O    ALA E  11      -1.023  21.170   3.499  1.00 89.30 LIG-0.27  OA
BRANCH 23 26
ATOM     26  CA  ALA E  12      -1.991  22.995   1.712  1.00 61.10 LIG 0.17  C 
ATOM     27  CB  ALA E  12      -3.279  22.164   1.821  1.00 65.27 LIG 0.04  C 
BRANCH 26 28
ATOM     28  C   ALA E  12      -2.243  24.262   0.910  1.00 54.59 LIG 0.24  C 
ATOM     29  N   ALA E  13      -1.344  25.229   1.097  1.00 64.78 LIG-0.35  N 
ATOM     30 H    ALA E  13      -0.636  25.137   1.577  1.00 64.78 LIG 0.16  HD
ATOM     31 O    ALA E  12      -3.191  24.350   0.126  1.00 69.11 LIG-0.27  OA
BRANCH 29 32
ATOM     32  CA  ALA E  13      -1.487  26.543   0.491  1.00 54.23 LIG 0.17  C 
ATOM     33  CB  ALA E  13      -0.353  27.458   0.954  1.00 56.27 LIG 0.04  C 
BRANCH 32 34
ATOM     34  C   ALA E  13      -1.466  26.486  -1.026  1.00 65.29 LIG 0.24  C 
ATOM     35  N   ALA E  14      -1.899  27.582  -1.640  1.00 85.74 LIG-0.35  N 
ATOM     36 H    ALA E  14      -2.207  28.268  -1.224  1.00 85.74 LIG 0.16  HD
ATOM     37 O    ALA E  13      -1.017  25.507  -1.626  1.00 75.52 LIG-0.27  OA
BRANCH 35 38
ATOM     38  CA  ALA E  14      -1.891  27.723  -3.085  1.00 94.46 LIG 0.16  C 
ATOM     39  CB  ALA E  14      -2.898  28.767  -3.511  1.00106.12 LIG 0.04  C 
BRANCH 38 40
ATOM     40  C   ALA E  14      -0.495  28.095  -3.573  1.00 99.07 LIG 0.22  C 
ATOM     41 O    ALA E  14       0.383  28.429  -2.778  1.00120.33 LIG-0.29  OA
ENDBRANCH 38 40
ENDBRANCH 35 38
ENDBRANCH 32 34
ENDBRANCH 29 32
ENDBRANCH 26 28
ENDBRANCH 23 26
ENDBRANCH 1 22
TORSDOF 13
ENDMDL
MODEL 205
USER: ADFR SOLUTION from run 135
USER: SCORE 4.250819 LL:  -2.557 LR:  -3.656 RR:   0.000 FEB:   0.222
USER: RMSD 5.096575
USER: SEED 134
USER: STATUS no improvement in best in 79 clusters for 5 generations
USER: GENES 15
USER: genes 0 Translation |==|  0.57061 0.23501 0.58473
USER: genes 1 Rotation |==|  0.70242 0.57624 0.59265 0.94117
USER: genes 2 Torsion [CB]-CA--N-[C] |==|  0.26111
USER: genes 3 Torsion [N]-C--CA-[N] |==|  0.46962
USER: genes 4 Torsion [C]-CA--N-[C] |==|  0.60680
USER: genes 5 Torsion [N]-C--CA-[N] |==|  0.20116
USER: genes 6 Torsion [C]-CA--N-[C] |==|  0.77277
USER: genes 7 Torsion [N]-C--CA-[N] |==|  0.49034
USER: genes 8 Torsion [N]-CA--C-[N] |==|  0.14082
USER: genes 9 Torsion [C]-N--CA-[CB] |==|  0.17906
USER: genes 10 Torsion [N]-CA--C-[N] |==|  0.12468
USER: genes 11 Torsion [C]-N--CA-[CB] |==|  0.84458
USER: genes 12 Torsion [N]-CA--C-[N] |==|  0.38684
USER: genes 13 Torsion [C]-N--CA-[C] |==|  0.77517
USER: genes 14 Torsion [N]-CA--C-[O] |==|  0.96936
ROOT
ATOM      1  CA  ALA E  11       0.369  18.859   2.719  1.00 85.35 LIG 0.17  C 
ATOM      2  CB  ALA E  11      -0.035  18.008   3.925  1.00 80.46 LIG 0.04  C 
ENDROOT
BRANCH 1 3
ATOM      3  N   ALA E  11       0.827  20.171   3.162  1.00 87.15 LIG-0.35  N 
ATOM      4  C   ALA E  10       2.127  20.399   3.367  1.00 62.15 LIG 0.24  C 
ATOM      5 O    ALA E  10       3.000  19.607   3.007  1.00 65.72 LIG-0.27  OA
ATOM      6 H    ALA E  11       0.206  20.756   3.272  1.00 87.15 LIG 0.16  HD
BRANCH 4 7
ATOM      7  CA  ALA E  10       2.512  21.696   4.071  1.00 66.45 LIG 0.17  C 
ATOM      8  CB  ALA E  10       2.214  22.896   3.173  1.00 58.63 LIG 0.04  C 
BRANCH 7 9
ATOM      9  N   ALA E  10       3.915  21.708   4.460  1.00 75.43 LIG-0.35  N 
ATOM     10  C   ALA E   9       4.345  22.230   5.606  1.00 82.21 LIG 0.24  C 
ATOM     11 O    ALA E   9       3.601  22.780   6.426  1.00 73.75 LIG-0.27  OA
ATOM     12 H    ALA E  10       4.439  21.347   3.880  1.00 75.43 LIG 0.16  HD
BRANCH 10 13
ATOM     13  CA  ALA E   9       5.844  22.146   5.859  1.00 87.65 LIG 0.17  C 
ATOM     14  CB  ALA E   9       6.170  22.432   7.323  1.00 72.21 LIG 0.04  C 
BRANCH 13 15
ATOM     15  N   ALA E   9       6.503  23.095   4.971  1.00 84.24 LIG-0.35  N 
ATOM     16 H    ALA E   9       6.700  23.846   5.342  1.00 84.24 LIG 0.16  HD
ATOM     17  C   ALA E   8       6.768  22.812   3.703  1.00 61.40 LIG 0.26  C 
ATOM     18 O    ALA E   8       6.564  21.703   3.213  1.00 66.21 LIG-0.27  OA
BRANCH 17 19
ATOM     19  CA  ALA E   8       7.378  23.937   2.872  1.00 67.03 LIG 0.40  C 
ATOM     20  N   ALA E   8       7.701  23.460   1.495  1.00 60.26 LIG 0.61  N 
ATOM     21  CB  ALA E   8       6.434  25.133   2.812  1.00 64.64 LIG 0.06  C 
ENDBRANCH 17 19
ENDBRANCH 13 15
ENDBRANCH 10 13
ENDBRANCH 7 9
ENDBRANCH 4 7
ENDBRANCH 1 3
BRANCH 1 22
ATOM     22  C   ALA E  11      -0.794  18.975   1.742  1.00 81.78 LIG 0.24  C 
ATOM     23  N   ALA E  12      -0.647  19.797   0.704  1.00 82.91 LIG-0.35  N 
ATOM     24 H    ALA E  12       0.091  20.180   0.485  1.00 82.91 LIG 0.16  HD
ATOM     25 O    ALA E  11      -1.836  18.333   1.924  1.00 89.30 LIG-0.27  OA
BRANCH 23 26
ATOM     26  CA  ALA E  12      -1.782  20.103  -0.155  1.00 61.10 LIG 0.17  C 
ATOM     27  CB  ALA E  12      -2.867  20.860   0.625  1.00 65.27 LIG 0.04  C 
BRANCH 26 28
ATOM     28  C   ALA E  12      -1.333  20.912  -1.362  1.00 54.59 LIG 0.24  C 
ATOM     29  N   ALA E  13      -0.226  20.464  -1.955  1.00 64.78 LIG-0.35  N 
ATOM     30 H    ALA E  13       0.178  19.740  -1.727  1.00 64.78 LIG 0.16  HD
ATOM     31 O    ALA E  12      -1.983  21.880  -1.765  1.00 69.11 LIG-0.27  OA
BRANCH 29 32
ATOM     32  CA  ALA E  13       0.401  21.175  -3.057  1.00 54.23 LIG 0.17  C 
ATOM     33  CB  ALA E  13      -0.609  21.381  -4.187  1.00 56.27 LIG 0.04  C 
BRANCH 32 34
ATOM     34  C   ALA E  13       0.935  22.534  -2.641  1.00 65.29 LIG 0.24  C 
ATOM     35  N   ALA E  14       2.116  22.860  -3.153  1.00 85.74 LIG-0.35  N 
ATOM     36 H    ALA E  14       2.575  22.336  -3.656  1.00 85.74 LIG 0.16  HD
ATOM     37 O    ALA E  13       0.274  23.291  -1.926  1.00 75.52 LIG-0.27  OA
BRANCH 35 38
ATOM     38  CA  ALA E  14       2.745  24.145  -2.909  1.00 94.46 LIG 0.16  C 
ATOM     39  CB  ALA E  14       4.240  24.038  -3.106  1.00106.12 LIG 0.04  C 
BRANCH 38 40
ATOM     40  C   ALA E  14       2.159  25.207  -3.832  1.00 99.07 LIG 0.22  C 
ATOM     41 O    ALA E  14       1.429  24.891  -4.772  1.00120.33 LIG-0.29  OA
ENDBRANCH 38 40
ENDBRANCH 35 38
ENDBRANCH 32 34
ENDBRANCH 29 32
ENDBRANCH 26 28
ENDBRANCH 23 26
ENDBRANCH 1 22
TORSDOF 13
ENDMDL
MODEL 206
USER: ADFR SOLUTION from run 138
USER: SCORE 4.443608 LL:  -2.302 LR:  -3.652 RR:   0.000 FEB:   0.226
USER: RMSD 5.445605
USER: SEED 137
USER: STATUS no improvement in best in 68 clusters for 5 generations
USER: GENES 15
USER: genes 0 Translation |==|  0.57816 0.25272 0.57218
USER: genes 1 Rotation |==|  0.70799 0.64062 0.56442 0.92757
USER: genes 2 Torsion [CB]-CA--N-[C] |==|  0.16033
USER: genes 3 Torsion [N]-C--CA-[N] |==|  0.50295
USER: genes 4 Torsion [C]-CA--N-[C] |==|  0.66544
USER: genes 5 Torsion [N]-C--CA-[N] |==|  0.16523
USER: genes 6 Torsion [C]-CA--N-[C] |==|  0.77685
USER: genes 7 Torsion [N]-C--CA-[N] |==|  0.54353
USER: genes 8 Torsion [N]-CA--C-[N] |==|  0.01188
USER: genes 9 Torsion [C]-N--CA-[CB] |==|  0.86515
USER: genes 10 Torsion [N]-CA--C-[N] |==|  0.39681
USER: genes 11 Torsion [C]-N--CA-[CB] |==|  0.85296
USER: genes 12 Torsion [N]-CA--C-[N] |==|  0.40797
USER: genes 13 Torsion [C]-N--CA-[C] |==|  0.76586
USER: genes 14 Torsion [N]-CA--C-[O] |==|  0.96138
ROOT
ATOM      1  CA  ALA E  11       0.539  19.178   2.493  1.00 85.35 LIG 0.17  C 
ATOM      2  CB  ALA E  11       0.504  18.354   3.782  1.00 80.46 LIG 0.04  C 
ENDROOT
BRANCH 1 3
ATOM      3  N   ALA E  11       1.084  20.504   2.760  1.00 87.15 LIG-0.35  N 
ATOM      4  C   ALA E  10       2.303  20.639   3.289  1.00 62.15 LIG 0.24  C 
ATOM      5 O    ALA E  10       3.089  19.695   3.384  1.00 65.72 LIG-0.27  OA
ATOM      6 H    ALA E  11       0.567  21.159   2.552  1.00 87.15 LIG 0.16  HD
BRANCH 4 7
ATOM      7  CA  ALA E  10       2.708  22.025   3.780  1.00 66.45 LIG 0.17  C 
ATOM      8  CB  ALA E  10       2.582  23.046   2.651  1.00 58.63 LIG 0.04  C 
BRANCH 7 9
ATOM      9  N   ALA E  10       4.064  22.040   4.309  1.00 75.43 LIG-0.35  N 
ATOM     10  C   ALA E   9       4.350  22.388   5.562  1.00 82.21 LIG 0.24  C 
ATOM     11 O    ALA E   9       3.498  22.761   6.377  1.00 73.75 LIG-0.27  OA
ATOM     12 H    ALA E  10       4.662  21.804   3.738  1.00 75.43 LIG 0.16  HD
BRANCH 10 13
ATOM     13  CA  ALA E   9       5.820  22.335   5.953  1.00 87.65 LIG 0.17  C 
ATOM     14  CB  ALA E   9       6.012  22.710   7.421  1.00 72.21 LIG 0.04  C 
BRANCH 13 15
ATOM     15  N   ALA E   9       6.551  23.237   5.072  1.00 84.24 LIG-0.35  N 
ATOM     16 H    ALA E   9       6.727  24.003   5.422  1.00 84.24 LIG 0.16  HD
ATOM     17  C   ALA E   8       6.905  22.894   3.842  1.00 61.40 LIG 0.26  C 
ATOM     18 O    ALA E   8       6.728  21.764   3.390  1.00 66.21 LIG-0.27  OA
BRANCH 17 19
ATOM     19  CA  ALA E   8       7.584  23.976   3.007  1.00 67.03 LIG 0.40  C 
ATOM     20  N   ALA E   8       7.587  23.601   1.561  1.00 60.26 LIG 0.61  N 
ATOM     21  CB  ALA E   8       6.895  25.321   3.206  1.00 64.64 LIG 0.06  C 
ENDBRANCH 17 19
ENDBRANCH 13 15
ENDBRANCH 10 13
ENDBRANCH 7 9
ENDBRANCH 4 7
ENDBRANCH 1 3
BRANCH 1 22
ATOM     22  C   ALA E  11      -0.855  19.260   1.882  1.00 81.78 LIG 0.24  C 
ATOM     23  N   ALA E  12      -1.332  20.471   1.601  1.00 82.91 LIG-0.35  N 
ATOM     24 H    ALA E  12      -0.874  21.199   1.634  1.00 82.91 LIG 0.16  HD
ATOM     25 O    ALA E  11      -1.512  18.233   1.672  1.00 89.30 LIG-0.27  OA
BRANCH 23 26
ATOM     26  CA  ALA E  12      -2.723  20.636   1.200  1.00 61.10 LIG 0.17  C 
ATOM     27  CB  ALA E  12      -3.096  19.631   0.100  1.00 65.27 LIG 0.04  C 
BRANCH 26 28
ATOM     28  C   ALA E  12      -3.645  20.478   2.399  1.00 54.59 LIG 0.24  C 
ATOM     29  N   ALA E  13      -4.701  21.292   2.402  1.00 64.78 LIG-0.35  N 
ATOM     30 H    ALA E  13      -4.896  21.824   1.755  1.00 64.78 LIG 0.16  HD
ATOM     31 O    ALA E  12      -3.431  19.629   3.268  1.00 69.11 LIG-0.27  OA
BRANCH 29 32
ATOM     32  CA  ALA E  13      -5.628  21.348   3.521  1.00 54.23 LIG 0.17  C 
ATOM     33  CB  ALA E  13      -6.132  19.943   3.853  1.00 56.27 LIG 0.04  C 
BRANCH 32 34
ATOM     34  C   ALA E  13      -4.993  21.935   4.770  1.00 65.29 LIG 0.24  C 
ATOM     35  N   ALA E  14      -5.812  22.636   5.545  1.00 85.74 LIG-0.35  N 
ATOM     36 H    ALA E  14      -6.635  22.789   5.351  1.00 85.74 LIG 0.16  HD
ATOM     37 O    ALA E  13      -3.815  21.711   5.056  1.00 75.52 LIG-0.27  OA
BRANCH 35 38
ATOM     38  CA  ALA E  14      -5.388  23.217   6.807  1.00 94.46 LIG 0.16  C 
ATOM     39  CB  ALA E  14      -6.231  24.428   7.132  1.00106.12 LIG 0.04  C 
BRANCH 38 40
ATOM     40  C   ALA E  14      -5.483  22.183   7.924  1.00 99.07 LIG 0.22  C 
ATOM     41 O    ALA E  14      -6.105  21.134   7.760  1.00120.33 LIG-0.29  OA
ENDBRANCH 38 40
ENDBRANCH 35 38
ENDBRANCH 32 34
ENDBRANCH 29 32
ENDBRANCH 26 28
ENDBRANCH 23 26
ENDBRANCH 1 22
TORSDOF 13
ENDMDL
MODEL 207
USER: ADFR SOLUTION from run 12
USER: SCORE 3.950000 LL:  -2.726 LR:  -3.650 RR:   0.000 FEB:   0.228
USER: RMSD 3.730907
USER: SEED 937734
USER: STATUS no improvement in best in 32 clusters for 5 generations
USER: GENES 15
USER: genes 0 Translation |==|  0.52126 0.45883 0.75091
USER: genes 1 Rotation |==|  0.34385 0.47878 0.49857 0.97451
USER: genes 2 Torsion [CB]-CA--N-[C] |==|  0.50721
USER: genes 3 Torsion [N]-C--CA-[N] |==|  0.35805
USER: genes 4 Torsion [C]-CA--N-[C] |==|  0.84816
USER: genes 5 Torsion [N]-C--CA-[N] |==|  0.14970
USER: genes 6 Torsion [C]-CA--N-[C] |==|  0.76709
USER: genes 7 Torsion [N]-C--CA-[N] |==|  0.52683
USER: genes 8 Torsion [N]-CA--C-[N] |==|  0.89359
USER: genes 9 Torsion [C]-N--CA-[CB] |==|  0.17998
USER: genes 10 Torsion [N]-CA--C-[N] |==|  0.09581
USER: genes 11 Torsion [C]-N--CA-[CB] |==|  0.84782
USER: genes 12 Torsion [N]-CA--C-[N] |==|  0.39437
USER: genes 13 Torsion [C]-N--CA-[C] |==|  0.77065
USER: genes 14 Torsion [N]-CA--C-[O] |==|  0.97836
ROOT
ATOM      1  CA  ALA E  11      -0.742  22.888   5.710  1.00 85.35 LIG 0.17  C 
ATOM      2  CB  ALA E  11      -1.697  23.949   6.260  1.00 80.46 LIG 0.04  C 
ENDROOT
BRANCH 1 3
ATOM      3  N   ALA E  11       0.263  23.511   4.856  1.00 87.15 LIG-0.35  N 
ATOM      4  C   ALA E  10       1.172  22.763   4.226  1.00 62.15 LIG 0.24  C 
ATOM      5 O    ALA E  10       1.088  21.536   4.165  1.00 65.72 LIG-0.27  OA
ATOM      6 H    ALA E  11       0.214  24.368   4.802  1.00 87.15 LIG 0.16  HD
BRANCH 4 7
ATOM      7  CA  ALA E  10       2.341  23.484   3.564  1.00 66.45 LIG 0.17  C 
ATOM      8  CB  ALA E  10       2.202  23.438   2.043  1.00 58.63 LIG 0.04  C 
BRANCH 7 9
ATOM      9  N   ALA E  10       3.623  22.919   3.958  1.00 75.43 LIG-0.35  N 
ATOM     10  C   ALA E   9       3.997  22.786   5.229  1.00 82.21 LIG 0.24  C 
ATOM     11 O    ALA E   9       3.308  23.159   6.185  1.00 73.75 LIG-0.27  OA
ATOM     12 H    ALA E  10       4.115  22.679   3.295  1.00 75.43 LIG 0.16  HD
BRANCH 10 13
ATOM     13  CA  ALA E   9       5.366  22.161   5.462  1.00 87.65 LIG 0.17  C 
ATOM     14  CB  ALA E   9       5.717  22.147   6.948  1.00 72.21 LIG 0.04  C 
BRANCH 13 15
ATOM     15  N   ALA E   9       6.342  22.921   4.691  1.00 84.24 LIG-0.35  N 
ATOM     16 H    ALA E   9       6.751  23.528   5.143  1.00 84.24 LIG 0.16  HD
ATOM     17  C   ALA E   8       6.569  22.686   3.406  1.00 61.40 LIG 0.26  C 
ATOM     18 O    ALA E   8       6.044  21.754   2.799  1.00 66.21 LIG-0.27  OA
BRANCH 17 19
ATOM     19  CA  ALA E   8       7.552  23.622   2.710  1.00 67.03 LIG 0.40  C 
ATOM     20  N   ALA E   8       7.538  23.398   1.234  1.00 60.26 LIG 0.61  N 
ATOM     21  CB  ALA E   8       7.227  25.077   3.030  1.00 64.64 LIG 0.06  C 
ENDBRANCH 17 19
ENDBRANCH 13 15
ENDBRANCH 10 13
ENDBRANCH 7 9
ENDBRANCH 4 7
ENDBRANCH 1 3
BRANCH 1 22
ATOM     22  C   ALA E  11      -1.521  21.813   4.963  1.00 81.78 LIG 0.24  C 
ATOM     23  N   ALA E  12      -1.826  22.050   3.688  1.00 82.91 LIG-0.35  N 
ATOM     24 H    ALA E  12      -1.524  22.709   3.226  1.00 82.91 LIG 0.16  HD
ATOM     25 O    ALA E  11      -1.862  20.771   5.534  1.00 89.30 LIG-0.27  OA
BRANCH 23 26
ATOM     26  CA  ALA E  12      -2.732  21.160   2.974  1.00 61.10 LIG 0.17  C 
ATOM     27  CB  ALA E  12      -4.140  21.210   3.586  1.00 65.27 LIG 0.04  C 
BRANCH 26 28
ATOM     28  C   ALA E  12      -2.781  21.522   1.498  1.00 54.59 LIG 0.24  C 
ATOM     29  N   ALA E  13      -1.629  21.964   0.993  1.00 64.78 LIG-0.35  N 
ATOM     30 H    ALA E  13      -0.892  21.987   1.434  1.00 64.78 LIG 0.16  HD
ATOM     31 O    ALA E  12      -3.809  21.371   0.833  1.00 69.11 LIG-0.27  OA
BRANCH 29 32
ATOM     32  CA  ALA E  13      -1.523  22.451  -0.373  1.00 54.23 LIG 0.17  C 
ATOM     33  CB  ALA E  13      -2.036  21.391  -1.348  1.00 56.27 LIG 0.04  C 
BRANCH 32 34
ATOM     34  C   ALA E  13      -2.315  23.727  -0.595  1.00 65.29 LIG 0.24  C 
ATOM     35  N   ALA E  14      -1.739  24.620  -1.393  1.00 85.74 LIG-0.35  N 
ATOM     36 H    ALA E  14      -0.959  24.515  -1.737  1.00 85.74 LIG 0.16  HD
ATOM     37 O    ALA E  13      -3.439  23.878  -0.110  1.00 75.52 LIG-0.27  OA
BRANCH 35 38
ATOM     38  CA  ALA E  14      -2.383  25.868  -1.762  1.00 94.46 LIG 0.16  C 
ATOM     39  CB  ALA E  14      -1.342  26.901  -2.129  1.00106.12 LIG 0.04  C 
BRANCH 38 40
ATOM     40  C   ALA E  14      -3.346  25.645  -2.922  1.00 99.07 LIG 0.22  C 
ATOM     41 O    ALA E  14      -3.390  24.562  -3.506  1.00120.33 LIG-0.29  OA
ENDBRANCH 38 40
ENDBRANCH 35 38
ENDBRANCH 32 34
ENDBRANCH 29 32
ENDBRANCH 26 28
ENDBRANCH 23 26
ENDBRANCH 1 22
TORSDOF 13
ENDMDL
MODEL 208
USER: ADFR SOLUTION from run 110
USER: SCORE 4.726806 LL:  -2.477 LR:  -3.647 RR:   0.000 FEB:   0.231
USER: RMSD 3.962823
USER: SEED 109
USER: STATUS no improvement in best in 50 clusters for 5 generations
USER: GENES 15
USER: genes 0 Translation |==|  0.66085 0.35299 0.56513
USER: genes 1 Rotation |==|  0.64768 0.46286 0.50565 0.97621
USER: genes 2 Torsion [CB]-CA--N-[C] |==|  0.22765
USER: genes 3 Torsion [N]-C--CA-[N] |==|  0.13775
USER: genes 4 Torsion [C]-CA--N-[C] |==|  0.20166
USER: genes 5 Torsion [N]-C--CA-[N] |==|  0.01974
USER: genes 6 Torsion [C]-CA--N-[C] |==|  0.75670
USER: genes 7 Torsion [N]-C--CA-[N] |==|  0.38877
USER: genes 8 Torsion [N]-CA--C-[N] |==|  0.99502
USER: genes 9 Torsion [C]-N--CA-[CB] |==|  0.84444
USER: genes 10 Torsion [N]-CA--C-[N] |==|  0.38352
USER: genes 11 Torsion [C]-N--CA-[CB] |==|  0.17367
USER: genes 12 Torsion [N]-CA--C-[N] |==|  0.09453
USER: genes 13 Torsion [C]-N--CA-[C] |==|  0.71810
USER: genes 14 Torsion [N]-CA--C-[O] |==|  0.06213
ROOT
ATOM      1  CA  ALA E  11       2.399  20.983   2.366  1.00 85.35 LIG 0.17  C 
ATOM      2  CB  ALA E  11       1.338  20.767   3.447  1.00 80.46 LIG 0.04  C 
ENDROOT
BRANCH 1 3
ATOM      3  N   ALA E  11       3.318  22.042   2.769  1.00 87.15 LIG-0.35  N 
ATOM      4  C   ALA E  10       4.332  21.779   3.597  1.00 62.15 LIG 0.24  C 
ATOM      5 O    ALA E  10       4.661  20.629   3.891  1.00 65.72 LIG-0.27  OA
ATOM      6 H    ALA E  11       3.149  22.817   2.435  1.00 87.15 LIG 0.16  HD
BRANCH 4 7
ATOM      7  CA  ALA E  10       5.092  22.966   4.179  1.00 66.45 LIG 0.17  C 
ATOM      8  CB  ALA E  10       6.080  22.492   5.243  1.00 58.63 LIG 0.04  C 
BRANCH 7 9
ATOM      9  N   ALA E  10       4.195  23.960   4.748  1.00 75.43 LIG-0.35  N 
ATOM     10  C   ALA E   9       3.535  23.774   5.889  1.00 82.21 LIG 0.24  C 
ATOM     11 O    ALA E   9       3.597  22.731   6.549  1.00 73.75 LIG-0.27  OA
ATOM     12 H    ALA E  10       4.131  24.678   4.278  1.00 75.43 LIG 0.16  HD
BRANCH 10 13
ATOM     13  CA  ALA E   9       2.649  24.925   6.345  1.00 87.65 LIG 0.17  C 
ATOM     14  CB  ALA E   9       1.243  24.435   6.683  1.00 72.21 LIG 0.04  C 
BRANCH 13 15
ATOM     15  N   ALA E   9       2.624  25.921   5.281  1.00 84.24 LIG-0.35  N 
ATOM     16 H    ALA E   9       1.974  25.825   4.725  1.00 84.24 LIG 0.16  HD
ATOM     17  C   ALA E   8       3.531  26.883   5.190  1.00 61.40 LIG 0.26  C 
ATOM     18 O    ALA E   8       4.397  27.062   6.044  1.00 66.21 LIG-0.27  OA
BRANCH 17 19
ATOM     19  CA  ALA E   8       3.429  27.796   3.972  1.00 67.03 LIG 0.40  C 
ATOM     20  N   ALA E   8       3.706  29.214   4.351  1.00 60.26 LIG 0.61  N 
ATOM     21  CB  ALA E   8       4.390  27.342   2.878  1.00 64.64 LIG 0.06  C 
ENDBRANCH 17 19
ENDBRANCH 13 15
ENDBRANCH 10 13
ENDBRANCH 7 9
ENDBRANCH 4 7
ENDBRANCH 1 3
BRANCH 1 22
ATOM     22  C   ALA E  11       1.736  21.296   1.031  1.00 81.78 LIG 0.24  C 
ATOM     23  N   ALA E  12       2.037  22.457   0.452  1.00 82.91 LIG-0.35  N 
ATOM     24 H    ALA E  12       2.657  22.991   0.718  1.00 82.91 LIG 0.16  HD
ATOM     25 O    ALA E  11       0.939  20.499   0.521  1.00 89.30 LIG-0.27  OA
BRANCH 23 26
ATOM     26  CA  ALA E  12       1.296  22.906  -0.719  1.00 61.10 LIG 0.17  C 
ATOM     27  CB  ALA E  12       1.353  21.854  -1.836  1.00 65.27 LIG 0.04  C 
BRANCH 26 28
ATOM     28  C   ALA E  12      -0.146  23.215  -0.352  1.00 54.59 LIG 0.24  C 
ATOM     29  N   ALA E  13      -0.640  24.321  -0.908  1.00 64.78 LIG-0.35  N 
ATOM     30 H    ALA E  13      -0.213  24.799  -1.481  1.00 64.78 LIG 0.16  HD
ATOM     31 O    ALA E  12      -0.800  22.462   0.376  1.00 69.11 LIG-0.27  OA
BRANCH 29 32
ATOM     32  CA  ALA E  13      -1.966  24.821  -0.584  1.00 54.23 LIG 0.17  C 
ATOM     33  CB  ALA E  13      -2.038  25.191   0.898  1.00 56.27 LIG 0.04  C 
BRANCH 32 34
ATOM     34  C   ALA E  13      -2.338  26.047  -1.400  1.00 65.29 LIG 0.24  C 
ATOM     35  N   ALA E  14      -1.860  26.069  -2.639  1.00 85.74 LIG-0.35  N 
ATOM     36 H    ALA E  14      -1.345  25.460  -2.959  1.00 85.74 LIG 0.16  HD
ATOM     37 O    ALA E  13      -3.084  26.918  -0.946  1.00 75.52 LIG-0.27  OA
BRANCH 35 38
ATOM     38  CA  ALA E  14      -2.167  27.135  -3.576  1.00 94.46 LIG 0.16  C 
ATOM     39  CB  ALA E  14      -0.916  27.557  -4.311  1.00106.12 LIG 0.04  C 
BRANCH 38 40
ATOM     40  C   ALA E  14      -3.239  26.682  -4.561  1.00 99.07 LIG 0.22  C 
ATOM     41 O    ALA E  14      -4.003  25.758  -4.280  1.00120.33 LIG-0.29  OA
ENDBRANCH 38 40
ENDBRANCH 35 38
ENDBRANCH 32 34
ENDBRANCH 29 32
ENDBRANCH 26 28
ENDBRANCH 23 26
ENDBRANCH 1 22
TORSDOF 13
ENDMDL
MODEL 209
USER: ADFR SOLUTION from run 23
USER: SCORE 4.381206 LL:  -3.131 LR:  -3.640 RR:   0.000 FEB:   0.238
USER: RMSD 5.340197
USER: SEED 22
USER: STATUS no improvement in best in 83 clusters for 5 generations
USER: GENES 15
USER: genes 0 Translation |==|  0.51574 0.43694 0.72602
USER: genes 1 Rotation |==|  0.48657 0.37251 0.49811 0.98328
USER: genes 2 Torsion [CB]-CA--N-[C] |==|  0.51116
USER: genes 3 Torsion [N]-C--CA-[N] |==|  0.43333
USER: genes 4 Torsion [C]-CA--N-[C] |==|  0.79315
USER: genes 5 Torsion [N]-C--CA-[N] |==|  0.03724
USER: genes 6 Torsion [C]-CA--N-[C] |==|  0.75151
USER: genes 7 Torsion [N]-C--CA-[N] |==|  0.87388
USER: genes 8 Torsion [N]-CA--C-[N] |==|  0.93803
USER: genes 9 Torsion [C]-N--CA-[CB] |==|  0.19960
USER: genes 10 Torsion [N]-CA--C-[N] |==|  0.10542
USER: genes 11 Torsion [C]-N--CA-[CB] |==|  0.87222
USER: genes 12 Torsion [N]-CA--C-[N] |==|  0.88719
USER: genes 13 Torsion [C]-N--CA-[C] |==|  0.71108
USER: genes 14 Torsion [N]-CA--C-[O] |==|  0.97503
ROOT
ATOM      1  CA  ALA E  11      -0.866  22.494   5.262  1.00 85.35 LIG 0.17  C 
ATOM      2  CB  ALA E  11      -2.189  23.047   5.796  1.00 80.46 LIG 0.04  C 
ENDROOT
BRANCH 1 3
ATOM      3  N   ALA E  11       0.171  23.517   5.334  1.00 87.15 LIG-0.35  N 
ATOM      4  C   ALA E  10       1.391  23.278   4.845  1.00 62.15 LIG 0.24  C 
ATOM      5 O    ALA E  10       1.640  22.295   4.146  1.00 65.72 LIG-0.27  OA
ATOM      6 H    ALA E  11      -0.070  24.255   5.704  1.00 87.15 LIG 0.16  HD
BRANCH 4 7
ATOM      7  CA  ALA E  10       2.492  24.279   5.179  1.00 66.45 LIG 0.17  C 
ATOM      8  CB  ALA E  10       2.414  25.485   4.244  1.00 58.63 LIG 0.04  C 
BRANCH 7 9
ATOM      9  N   ALA E  10       3.815  23.678   5.100  1.00 75.43 LIG-0.35  N 
ATOM     10  C   ALA E   9       4.288  22.841   6.020  1.00 82.21 LIG 0.24  C 
ATOM     11 O    ALA E   9       3.663  22.525   7.039  1.00 73.75 LIG-0.27  OA
ATOM     12 H    ALA E  10       4.262  23.915   4.404  1.00 75.43 LIG 0.16  HD
BRANCH 10 13
ATOM     13  CA  ALA E   9       5.688  22.296   5.773  1.00 87.65 LIG 0.17  C 
ATOM     14  CB  ALA E   9       6.524  22.330   7.050  1.00 72.21 LIG 0.04  C 
BRANCH 13 15
ATOM     15  N   ALA E   9       6.298  23.091   4.715  1.00 84.24 LIG-0.35  N 
ATOM     16 H    ALA E   9       6.740  23.773   4.998  1.00 84.24 LIG 0.16  HD
ATOM     17  C   ALA E   8       6.175  22.778   3.433  1.00 61.40 LIG 0.26  C 
ATOM     18 O    ALA E   8       5.622  21.749   3.050  1.00 66.21 LIG-0.27  OA
BRANCH 17 19
ATOM     19  CA  ALA E   8       6.792  23.755   2.436  1.00 67.03 LIG 0.40  C 
ATOM     20  N   ALA E   8       6.444  25.163   2.794  1.00 60.26 LIG 0.61  N 
ATOM     21  CB  ALA E   8       8.306  23.581   2.378  1.00 64.64 LIG 0.06  C 
ENDBRANCH 17 19
ENDBRANCH 13 15
ENDBRANCH 10 13
ENDBRANCH 7 9
ENDBRANCH 4 7
ENDBRANCH 1 3
BRANCH 1 22
ATOM     22  C   ALA E  11      -1.045  21.979   3.840  1.00 81.78 LIG 0.24  C 
ATOM     23  N   ALA E  12      -0.641  22.767   2.845  1.00 82.91 LIG-0.35  N 
ATOM     24 H    ALA E  12      -0.188  23.491   2.947  1.00 82.91 LIG 0.16  HD
ATOM     25 O    ALA E  11      -1.560  20.874   3.630  1.00 89.30 LIG-0.27  OA
BRANCH 23 26
ATOM     26  CA  ALA E  12      -0.958  22.426   1.465  1.00 61.10 LIG 0.17  C 
ATOM     27  CB  ALA E  12      -2.452  22.643   1.180  1.00 65.27 LIG 0.04  C 
BRANCH 26 28
ATOM     28  C   ALA E  12      -0.110  23.245   0.505  1.00 54.59 LIG 0.24  C 
ATOM     29  N   ALA E  13       1.146  23.447   0.903  1.00 64.78 LIG-0.35  N 
ATOM     30 H    ALA E  13       1.486  23.095   1.611  1.00 64.78 LIG 0.16  HD
ATOM     31 O    ALA E  12      -0.561  23.646  -0.571  1.00 69.11 LIG-0.27  OA
BRANCH 29 32
ATOM     32  CA  ALA E  13       2.065  24.294   0.159  1.00 54.23 LIG 0.17  C 
ATOM     33  CB  ALA E  13       1.986  23.966  -1.332  1.00 56.27 LIG 0.04  C 
BRANCH 32 34
ATOM     34  C   ALA E  13       1.765  25.771   0.340  1.00 65.29 LIG 0.24  C 
ATOM     35  N   ALA E  14       0.476  26.092   0.339  1.00 85.74 LIG-0.35  N 
ATOM     36 H    ALA E  14      -0.154  25.523   0.210  1.00 85.74 LIG 0.16  HD
ATOM     37 O    ALA E  13       2.667  26.589   0.534  1.00 75.52 LIG-0.27  OA
BRANCH 35 38
ATOM     38  CA  ALA E  14       0.009  27.449   0.560  1.00 94.46 LIG 0.16  C 
ATOM     39  CB  ALA E  14      -1.041  27.811  -0.466  1.00106.12 LIG 0.04  C 
BRANCH 38 40
ATOM     40  C   ALA E  14      -0.550  27.594   1.971  1.00 99.07 LIG 0.22  C 
ATOM     41 O    ALA E  14      -0.714  26.607   2.689  1.00120.33 LIG-0.29  OA
ENDBRANCH 38 40
ENDBRANCH 35 38
ENDBRANCH 32 34
ENDBRANCH 29 32
ENDBRANCH 26 28
ENDBRANCH 23 26
ENDBRANCH 1 22
TORSDOF 13
ENDMDL
MODEL 210
USER: ADFR SOLUTION from run 37
USER: SCORE 5.864301 LL:  -2.614 LR:  -3.635 RR:   0.000 FEB:   0.242
USER: RMSD 4.057167
USER: SEED 36
USER: STATUS searching
USER: GENES 15
USER: genes 0 Translation |==|  0.65881 0.34447 0.52602
USER: genes 1 Rotation |==|  0.85185 0.80088 0.44146 0.67957
USER: genes 2 Torsion [CB]-CA--N-[C] |==|  0.83769
USER: genes 3 Torsion [N]-C--CA-[N] |==|  0.36904
USER: genes 4 Torsion [C]-CA--N-[C] |==|  0.85664
USER: genes 5 Torsion [N]-C--CA-[N] |==|  0.43830
USER: genes 6 Torsion [C]-CA--N-[C] |==|  0.78354
USER: genes 7 Torsion [N]-C--CA-[N] |==|  0.43283
USER: genes 8 Torsion [N]-CA--C-[N] |==|  0.37252
USER: genes 9 Torsion [C]-N--CA-[CB] |==|  0.16352
USER: genes 10 Torsion [N]-CA--C-[N] |==|  0.08993
USER: genes 11 Torsion [C]-N--CA-[CB] |==|  0.84372
USER: genes 12 Torsion [N]-CA--C-[N] |==|  0.40556
USER: genes 13 Torsion [C]-N--CA-[C] |==|  0.76940
USER: genes 14 Torsion [N]-CA--C-[O] |==|  0.97437
ROOT
ATOM      1  CA  ALA E  11       2.353  20.830   1.662  1.00 85.35 LIG 0.17  C 
ATOM      2  CB  ALA E  11       2.904  19.406   1.554  1.00 80.46 LIG 0.04  C 
ENDROOT
BRANCH 1 3
ATOM      3  N   ALA E  11       3.450  21.786   1.760  1.00 87.15 LIG-0.35  N 
ATOM      4  C   ALA E  10       4.340  21.695   2.752  1.00 62.15 LIG 0.24  C 
ATOM      5 O    ALA E  10       4.403  20.713   3.492  1.00 65.72 LIG-0.27  OA
ATOM      6 H    ALA E  11       3.466  22.385   1.143  1.00 87.15 LIG 0.16  HD
BRANCH 4 7
ATOM      7  CA  ALA E  10       5.300  22.864   2.946  1.00 66.45 LIG 0.17  C 
ATOM      8  CB  ALA E  10       6.690  22.501   2.426  1.00 58.63 LIG 0.04  C 
BRANCH 7 9
ATOM      9  N   ALA E  10       5.386  23.271   4.341  1.00 75.43 LIG-0.35  N 
ATOM     10  C   ALA E   9       4.316  23.541   5.085  1.00 82.21 LIG 0.24  C 
ATOM     11 O    ALA E   9       3.158  23.503   4.652  1.00 73.75 LIG-0.27  OA
ATOM     12 H    ALA E  10       6.191  23.321   4.638  1.00 75.43 LIG 0.16  HD
BRANCH 10 13
ATOM     13  CA  ALA E   9       4.588  23.939   6.529  1.00 87.65 LIG 0.17  C 
ATOM     14  CB  ALA E   9       4.862  22.711   7.394  1.00 72.21 LIG 0.04  C 
BRANCH 13 15
ATOM     15  N   ALA E   9       3.433  24.685   7.013  1.00 84.24 LIG-0.35  N 
ATOM     16 H    ALA E   9       2.906  24.229   7.517  1.00 84.24 LIG 0.16  HD
ATOM     17  C   ALA E   8       3.227  25.956   6.696  1.00 61.40 LIG 0.26  C 
ATOM     18 O    ALA E   8       4.038  26.620   6.053  1.00 66.21 LIG-0.27  OA
BRANCH 17 19
ATOM     19  CA  ALA E   8       1.929  26.577   7.202  1.00 67.03 LIG 0.40  C 
ATOM     20  N   ALA E   8       2.061  28.061   7.308  1.00 60.26 LIG 0.61  N 
ATOM     21  CB  ALA E   8       0.765  26.212   6.288  1.00 64.64 LIG 0.06  C 
ENDBRANCH 17 19
ENDBRANCH 13 15
ENDBRANCH 10 13
ENDBRANCH 7 9
ENDBRANCH 4 7
ENDBRANCH 1 3
BRANCH 1 22
ATOM     22  C   ALA E  11       1.409  20.940   2.853  1.00 81.78 LIG 0.24  C 
ATOM     23  N   ALA E  12       0.101  20.956   2.601  1.00 82.91 LIG-0.35  N 
ATOM     24 H    ALA E  12      -0.252  20.798   1.833  1.00 82.91 LIG 0.16  HD
ATOM     25 O    ALA E  11       1.854  21.025   4.004  1.00 89.30 LIG-0.27  OA
BRANCH 23 26
ATOM     26  CA  ALA E  12      -0.847  21.254   3.666  1.00 61.10 LIG 0.17  C 
ATOM     27  CB  ALA E  12      -0.572  22.641   4.267  1.00 65.27 LIG 0.04  C 
BRANCH 26 28
ATOM     28  C   ALA E  12      -2.274  21.173   3.148  1.00 54.59 LIG 0.24  C 
ATOM     29  N   ALA E  13      -2.468  20.271   2.186  1.00 64.78 LIG-0.35  N 
ATOM     30 H    ALA E  13      -1.862  19.724   1.914  1.00 64.78 LIG 0.16  HD
ATOM     31 O    ALA E  12      -3.172  21.872   3.624  1.00 69.11 LIG-0.27  OA
BRANCH 29 32
ATOM     32  CA  ALA E  13      -3.745  20.132   1.505  1.00 54.23 LIG 0.17  C 
ATOM     33  CB  ALA E  13      -4.856  19.875   2.525  1.00 56.27 LIG 0.04  C 
BRANCH 32 34
ATOM     34  C   ALA E  13      -4.111  21.368   0.702  1.00 65.29 LIG 0.24  C 
ATOM     35  N   ALA E  14      -4.781  21.137  -0.421  1.00 85.74 LIG-0.35  N 
ATOM     36 H    ALA E  14      -4.969  20.348  -0.707  1.00 85.74 LIG 0.16  HD
ATOM     37 O    ALA E  13      -3.849  22.501   1.114  1.00 75.52 LIG-0.27  OA
BRANCH 35 38
ATOM     38  CA  ALA E  14      -5.261  22.205  -1.278  1.00 94.46 LIG 0.16  C 
ATOM     39  CB  ALA E  14      -5.408  21.707  -2.698  1.00106.12 LIG 0.04  C 
BRANCH 38 40
ATOM     40  C   ALA E  14      -6.590  22.743  -0.760  1.00 99.07 LIG 0.22  C 
ATOM     41 O    ALA E  14      -7.191  22.169   0.148  1.00120.33 LIG-0.29  OA
ENDBRANCH 38 40
ENDBRANCH 35 38
ENDBRANCH 32 34
ENDBRANCH 29 32
ENDBRANCH 26 28
ENDBRANCH 23 26
ENDBRANCH 1 22
TORSDOF 13
ENDMDL
MODEL 211
USER: ADFR SOLUTION from run 181
USER: SCORE 3.671785 LL:  -2.408 LR:  -3.641 RR:   0.000 FEB:   0.237
USER: RMSD 4.322601
USER: SEED 180
USER: STATUS no improvement in best in 74 clusters for 5 generations
USER: GENES 15
USER: genes 0 Translation |==|  0.52425 0.48079 0.70102
USER: genes 1 Rotation |==|  0.54645 0.37260 0.46635 0.98008
USER: genes 2 Torsion [CB]-CA--N-[C] |==|  0.46820
USER: genes 3 Torsion [N]-C--CA-[N] |==|  0.45998
USER: genes 4 Torsion [C]-CA--N-[C] |==|  0.80177
USER: genes 5 Torsion [N]-C--CA-[N] |==|  0.99703
USER: genes 6 Torsion [C]-CA--N-[C] |==|  0.72623
USER: genes 7 Torsion [N]-C--CA-[N] |==|  0.96034
USER: genes 8 Torsion [N]-CA--C-[N] |==|  0.84269
USER: genes 9 Torsion [C]-N--CA-[CB] |==|  0.84978
USER: genes 10 Torsion [N]-CA--C-[N] |==|  0.34466
USER: genes 11 Torsion [C]-N--CA-[CB] |==|  0.51111
USER: genes 12 Torsion [N]-CA--C-[N] |==|  0.42792
USER: genes 13 Torsion [C]-N--CA-[C] |==|  0.77447
USER: genes 14 Torsion [N]-CA--C-[O] |==|  0.96501
ROOT
ATOM      1  CA  ALA E  11      -0.674  23.283   4.812  1.00 85.35 LIG 0.17  C 
ATOM      2  CB  ALA E  11      -1.969  23.759   5.473  1.00 80.46 LIG 0.04  C 
ENDROOT
BRANCH 1 3
ATOM      3  N   ALA E  11       0.421  24.186   5.148  1.00 87.15 LIG-0.35  N 
ATOM      4  C   ALA E  10       1.684  23.848   4.873  1.00 62.15 LIG 0.24  C 
ATOM      5 O    ALA E  10       1.967  22.885   4.159  1.00 65.72 LIG-0.27  OA
ATOM      6 H    ALA E  11       0.184  24.923   5.522  1.00 87.15 LIG 0.16  HD
BRANCH 4 7
ATOM      7  CA  ALA E  10       2.790  24.706   5.476  1.00 66.45 LIG 0.17  C 
ATOM      8  CB  ALA E  10       2.844  26.067   4.782  1.00 58.63 LIG 0.04  C 
BRANCH 7 9
ATOM      9  N   ALA E  10       4.090  24.058   5.390  1.00 75.43 LIG-0.35  N 
ATOM     10  C   ALA E   9       4.425  23.002   6.129  1.00 82.21 LIG 0.24  C 
ATOM     11 O    ALA E   9       3.678  22.499   6.975  1.00 73.75 LIG-0.27  OA
ATOM     12 H    ALA E  10       4.621  24.420   4.818  1.00 75.43 LIG 0.16  HD
BRANCH 10 13
ATOM     13  CA  ALA E   9       5.822  22.441   5.900  1.00 87.65 LIG 0.17  C 
ATOM     14  CB  ALA E   9       6.638  22.460   7.191  1.00 72.21 LIG 0.04  C 
BRANCH 13 15
ATOM     15  N   ALA E   9       6.458  23.234   4.856  1.00 84.24 LIG-0.35  N 
ATOM     16 H    ALA E   9       6.797  23.975   5.134  1.00 84.24 LIG 0.16  HD
ATOM     17  C   ALA E   8       6.502  22.837   3.592  1.00 61.40 LIG 0.26  C 
ATOM     18 O    ALA E   8       6.096  21.735   3.228  1.00 66.21 LIG-0.27  OA
BRANCH 17 19
ATOM     19  CA  ALA E   8       7.120  23.814   2.597  1.00 67.03 LIG 0.40  C 
ATOM     20  N   ALA E   8       7.245  25.174   3.203  1.00 60.26 LIG 0.61  N 
ATOM     21  CB  ALA E   8       8.482  23.315   2.128  1.00 64.64 LIG 0.06  C 
ENDBRANCH 17 19
ENDBRANCH 13 15
ENDBRANCH 10 13
ENDBRANCH 7 9
ENDBRANCH 4 7
ENDBRANCH 1 3
BRANCH 1 22
ATOM     22  C   ALA E  11      -0.863  23.169   3.305  1.00 81.78 LIG 0.24  C 
ATOM     23  N   ALA E  12      -1.077  24.295   2.625  1.00 82.91 LIG-0.35  N 
ATOM     24 H    ALA E  12      -1.007  25.087   2.954  1.00 82.91 LIG 0.16  HD
ATOM     25 O    ALA E  11      -0.828  22.066   2.747  1.00 89.30 LIG-0.27  OA
BRANCH 23 26
ATOM     26  CA  ALA E  12      -1.458  24.241   1.220  1.00 61.10 LIG 0.17  C 
ATOM     27  CB  ALA E  12      -0.450  23.409   0.414  1.00 65.27 LIG 0.04  C 
BRANCH 26 28
ATOM     28  C   ALA E  12      -2.859  23.672   1.069  1.00 54.59 LIG 0.24  C 
ATOM     29  N   ALA E  13      -3.712  24.455   0.409  1.00 64.78 LIG-0.35  N 
ATOM     30 H    ALA E  13      -3.489  25.197   0.035  1.00 64.78 LIG 0.16  HD
ATOM     31 O    ALA E  12      -3.148  22.552   1.499  1.00 69.11 LIG-0.27  OA
BRANCH 29 32
ATOM     32  CA  ALA E  13      -5.118  24.113   0.263  1.00 54.23 LIG 0.17  C 
ATOM     33  CB  ALA E  13      -5.817  25.146  -0.622  1.00 56.27 LIG 0.04  C 
BRANCH 32 34
ATOM     34  C   ALA E  13      -5.320  22.741  -0.354  1.00 65.29 LIG 0.24  C 
ATOM     35  N   ALA E  14      -6.463  22.141  -0.042  1.00 85.74 LIG-0.35  N 
ATOM     36 H    ALA E  14      -7.041  22.475   0.500  1.00 85.74 LIG 0.16  HD
ATOM     37 O    ALA E  13      -4.496  22.263  -1.138  1.00 75.52 LIG-0.27  OA
BRANCH 35 38
ATOM     38  CA  ALA E  14      -6.845  20.853  -0.591  1.00 94.46 LIG 0.16  C 
ATOM     39  CB  ALA E  14      -7.837  20.171   0.323  1.00106.12 LIG 0.04  C 
BRANCH 38 40
ATOM     40  C   ALA E  14      -7.434  21.025  -1.986  1.00 99.07 LIG 0.22  C 
ATOM     41 O    ALA E  14      -7.746  22.140  -2.405  1.00120.33 LIG-0.29  OA
ENDBRANCH 38 40
ENDBRANCH 35 38
ENDBRANCH 32 34
ENDBRANCH 29 32
ENDBRANCH 26 28
ENDBRANCH 23 26
ENDBRANCH 1 22
TORSDOF 13
ENDMDL
MODEL 212
USER: ADFR SOLUTION from run 6
USER: SCORE 4.757904 LL:  -2.404 LR:  -3.641 RR:   0.000 FEB:   0.237
USER: RMSD 4.179485
USER: SEED 322608
USER: STATUS no improvement in best in 62 clusters for 5 generations
USER: GENES 15
USER: genes 0 Translation |==|  0.66025 0.35005 0.56618
USER: genes 1 Rotation |==|  0.61727 0.44865 0.49519 0.98331
USER: genes 2 Torsion [CB]-CA--N-[C] |==|  0.22570
USER: genes 3 Torsion [N]-C--CA-[N] |==|  0.16590
USER: genes 4 Torsion [C]-CA--N-[C] |==|  0.18187
USER: genes 5 Torsion [N]-C--CA-[N] |==|  0.03521
USER: genes 6 Torsion [C]-CA--N-[C] |==|  0.78847
USER: genes 7 Torsion [N]-C--CA-[N] |==|  0.56216
USER: genes 8 Torsion [N]-CA--C-[N] |==|  0.00223
USER: genes 9 Torsion [C]-N--CA-[CB] |==|  0.84328
USER: genes 10 Torsion [N]-CA--C-[N] |==|  0.36214
USER: genes 11 Torsion [C]-N--CA-[CB] |==|  0.84723
USER: genes 12 Torsion [N]-CA--C-[N] |==|  0.39378
USER: genes 13 Torsion [C]-N--CA-[C] |==|  0.74420
USER: genes 14 Torsion [N]-CA--C-[O] |==|  0.02962
ROOT
ATOM      1  CA  ALA E  11       2.386  20.930   2.385  1.00 85.35 LIG 0.17  C 
ATOM      2  CB  ALA E  11       1.273  20.915   3.435  1.00 80.46 LIG 0.04  C 
ENDROOT
BRANCH 1 3
ATOM      3  N   ALA E  11       3.359  21.970   2.700  1.00 87.15 LIG-0.35  N 
ATOM      4  C   ALA E  10       4.313  21.751   3.608  1.00 62.15 LIG 0.24  C 
ATOM      5 O    ALA E  10       4.544  20.629   4.063  1.00 65.72 LIG-0.27  OA
ATOM      6 H    ALA E  11       3.261  22.704   2.262  1.00 87.15 LIG 0.16  HD
BRANCH 4 7
ATOM      7  CA  ALA E  10       5.129  22.950   4.076  1.00 66.45 LIG 0.17  C 
ATOM      8  CB  ALA E  10       6.205  22.507   5.066  1.00 58.63 LIG 0.04  C 
BRANCH 7 9
ATOM      9  N   ALA E  10       4.292  23.974   4.684  1.00 75.43 LIG-0.35  N 
ATOM     10  C   ALA E   9       3.624  23.784   5.820  1.00 82.21 LIG 0.24  C 
ATOM     11 O    ALA E   9       3.626  22.716   6.441  1.00 73.75 LIG-0.27  OA
ATOM     12 H    ALA E  10       4.270  24.711   4.242  1.00 75.43 LIG 0.16  HD
BRANCH 10 13
ATOM     13  CA  ALA E   9       2.808  24.968   6.322  1.00 87.65 LIG 0.17  C 
ATOM     14  CB  ALA E   9       1.419  24.523   6.776  1.00 72.21 LIG 0.04  C 
BRANCH 13 15
ATOM     15  N   ALA E   9       2.728  25.946   5.244  1.00 84.24 LIG-0.35  N 
ATOM     16 H    ALA E   9       1.969  25.963   4.840  1.00 84.24 LIG 0.16  HD
ATOM     17  C   ALA E   8       3.746  26.734   4.927  1.00 61.40 LIG 0.26  C 
ATOM     18 O    ALA E   8       4.790  26.764   5.574  1.00 66.21 LIG-0.27  OA
BRANCH 17 19
ATOM     19  CA  ALA E   8       3.545  27.644   3.718  1.00 67.03 LIG 0.40  C 
ATOM     20  N   ALA E   8       4.861  28.055   3.144  1.00 60.26 LIG 0.61  N 
ATOM     21  CB  ALA E   8       2.696  26.950   2.659  1.00 64.64 LIG 0.06  C 
ENDBRANCH 17 19
ENDBRANCH 13 15
ENDBRANCH 10 13
ENDBRANCH 7 9
ENDBRANCH 4 7
ENDBRANCH 1 3
BRANCH 1 22
ATOM     22  C   ALA E  11       1.795  21.120   0.994  1.00 81.78 LIG 0.24  C 
ATOM     23  N   ALA E  12       2.235  22.151   0.274  1.00 82.91 LIG-0.35  N 
ATOM     24 H    ALA E  12       2.903  22.649   0.490  1.00 82.91 LIG 0.16  HD
ATOM     25 O    ALA E  11       0.930  20.346   0.566  1.00 89.30 LIG-0.27  OA
BRANCH 23 26
ATOM     26  CA  ALA E  12       1.578  22.506  -0.976  1.00 61.10 LIG 0.17  C 
ATOM     27  CB  ALA E  12       1.558  21.310  -1.940  1.00 65.27 LIG 0.04  C 
BRANCH 26 28
ATOM     28  C   ALA E  12       0.165  23.001  -0.715  1.00 54.59 LIG 0.24  C 
ATOM     29  N   ALA E  13      -0.142  24.154  -1.309  1.00 64.78 LIG-0.35  N 
ATOM     30 H    ALA E  13       0.382  24.565  -1.853  1.00 64.78 LIG 0.16  HD
ATOM     31 O    ALA E  12      -0.630  22.348  -0.033  1.00 69.11 LIG-0.27  OA
BRANCH 29 32
ATOM     32  CA  ALA E  13      -1.413  24.824  -1.084  1.00 54.23 LIG 0.17  C 
ATOM     33  CB  ALA E  13      -2.568  23.870  -1.391  1.00 56.27 LIG 0.04  C 
BRANCH 32 34
ATOM     34  C   ALA E  13      -1.564  25.312   0.346  1.00 65.29 LIG 0.24  C 
ATOM     35  N   ALA E  14      -2.165  26.489   0.482  1.00 85.74 LIG-0.35  N 
ATOM     36 H    ALA E  14      -2.422  26.970  -0.182  1.00 85.74 LIG 0.16  HD
ATOM     37 O    ALA E  13      -1.204  24.621   1.301  1.00 75.52 LIG-0.27  OA
BRANCH 35 38
ATOM     38  CA  ALA E  14      -2.446  27.078   1.779  1.00 94.46 LIG 0.16  C 
ATOM     39  CB  ALA E  14      -2.317  28.582   1.707  1.00106.12 LIG 0.04  C 
BRANCH 38 40
ATOM     40  C   ALA E  14      -3.841  26.682   2.249  1.00 99.07 LIG 0.22  C 
ATOM     41 O    ALA E  14      -4.482  25.811   1.660  1.00120.33 LIG-0.29  OA
ENDBRANCH 38 40
ENDBRANCH 35 38
ENDBRANCH 32 34
ENDBRANCH 29 32
ENDBRANCH 26 28
ENDBRANCH 23 26
ENDBRANCH 1 22
TORSDOF 13
ENDMDL
MODEL 213
USER: ADFR SOLUTION from run 71
USER: SCORE 4.058370 LL:  -2.483 LR:  -3.635 RR:   0.000 FEB:   0.243
USER: RMSD 4.585725
USER: SEED 70
USER: STATUS no improvement in best in 77 clusters for 5 generations
USER: GENES 15
USER: genes 0 Translation |==|  0.52717 0.42582 0.68498
USER: genes 1 Rotation |==|  0.60856 0.43226 0.48619 0.98315
USER: genes 2 Torsion [CB]-CA--N-[C] |==|  0.42596
USER: genes 3 Torsion [N]-C--CA-[N] |==|  0.43230
USER: genes 4 Torsion [C]-CA--N-[C] |==|  0.75368
USER: genes 5 Torsion [N]-C--CA-[N] |==|  0.04902
USER: genes 6 Torsion [C]-CA--N-[C] |==|  0.75023
USER: genes 7 Torsion [N]-C--CA-[N] |==|  0.54932
USER: genes 8 Torsion [N]-CA--C-[N] |==|  0.02078
USER: genes 9 Torsion [C]-N--CA-[CB] |==|  0.82715
USER: genes 10 Torsion [N]-CA--C-[N] |==|  0.42489
USER: genes 11 Torsion [C]-N--CA-[CB] |==|  0.84433
USER: genes 12 Torsion [N]-CA--C-[N] |==|  0.40566
USER: genes 13 Torsion [C]-N--CA-[C] |==|  0.75474
USER: genes 14 Torsion [N]-CA--C-[O] |==|  0.02029
ROOT
ATOM      1  CA  ALA E  11      -0.609  22.294   4.524  1.00 85.35 LIG 0.17  C 
ATOM      2  CB  ALA E  11      -1.775  22.371   5.510  1.00 80.46 LIG 0.04  C 
ENDROOT
BRANCH 1 3
ATOM      3  N   ALA E  11       0.401  23.291   4.861  1.00 87.15 LIG-0.35  N 
ATOM      4  C   ALA E  10       1.680  23.096   4.529  1.00 62.15 LIG 0.24  C 
ATOM      5 O    ALA E  10       2.033  22.197   3.764  1.00 65.72 LIG-0.27  OA
ATOM      6 H    ALA E  11       0.105  23.983   5.276  1.00 87.15 LIG 0.16  HD
BRANCH 4 7
ATOM      7  CA  ALA E  10       2.716  24.039   5.131  1.00 66.45 LIG 0.17  C 
ATOM      8  CB  ALA E  10       2.774  25.342   4.335  1.00 58.63 LIG 0.04  C 
BRANCH 7 9
ATOM      9  N   ALA E  10       4.038  23.434   5.183  1.00 75.43 LIG-0.35  N 
ATOM     10  C   ALA E   9       4.464  22.708   6.214  1.00 82.21 LIG 0.24  C 
ATOM     11 O    ALA E   9       3.791  22.510   7.232  1.00 73.75 LIG-0.27  OA
ATOM     12 H    ALA E  10       4.518  23.590   4.486  1.00 75.43 LIG 0.16  HD
BRANCH 10 13
ATOM     13  CA  ALA E   9       5.871  22.138   6.096  1.00 87.65 LIG 0.17  C 
ATOM     14  CB  ALA E   9       6.611  22.224   7.429  1.00 72.21 LIG 0.04  C 
BRANCH 13 15
ATOM     15  N   ALA E   9       6.567  22.878   5.051  1.00 84.24 LIG-0.35  N 
ATOM     16 H    ALA E   9       6.990  23.572   5.333  1.00 84.24 LIG 0.16  HD
ATOM     17  C   ALA E   8       6.542  22.502   3.780  1.00 61.40 LIG 0.26  C 
ATOM     18 O    ALA E   8       6.013  21.457   3.407  1.00 66.21 LIG-0.27  OA
BRANCH 17 19
ATOM     19  CA  ALA E   8       7.242  23.425   2.787  1.00 67.03 LIG 0.40  C 
ATOM     20  N   ALA E   8       6.790  23.139   1.393  1.00 60.26 LIG 0.61  N 
ATOM     21  CB  ALA E   8       6.985  24.886   3.140  1.00 64.64 LIG 0.06  C 
ENDBRANCH 17 19
ENDBRANCH 13 15
ENDBRANCH 10 13
ENDBRANCH 7 9
ENDBRANCH 4 7
ENDBRANCH 1 3
BRANCH 1 22
ATOM     22  C   ALA E  11      -1.113  22.470   3.096  1.00 81.78 LIG 0.24  C 
ATOM     23  N   ALA E  12      -0.487  23.361   2.329  1.00 82.91 LIG-0.35  N 
ATOM     24 H    ALA E  12       0.245  23.761   2.541  1.00 82.91 LIG 0.16  HD
ATOM     25 O    ALA E  11      -2.076  21.814   2.683  1.00 89.30 LIG-0.27  OA
BRANCH 23 26
ATOM     26  CA  ALA E  12      -1.033  23.721   1.028  1.00 61.10 LIG 0.17  C 
ATOM     27  CB  ALA E  12      -1.079  22.498   0.099  1.00 65.27 LIG 0.04  C 
BRANCH 26 28
ATOM     28  C   ALA E  12      -2.420  24.324   1.181  1.00 54.59 LIG 0.24  C 
ATOM     29  N   ALA E  13      -2.771  25.171   0.213  1.00 64.78 LIG-0.35  N 
ATOM     30 H    ALA E  13      -2.291  25.326  -0.483  1.00 64.78 LIG 0.16  HD
ATOM     31 O    ALA E  12      -3.160  24.008   2.117  1.00 69.11 LIG-0.27  OA
BRANCH 29 32
ATOM     32  CA  ALA E  13      -4.018  25.918   0.256  1.00 54.23 LIG 0.17  C 
ATOM     33  CB  ALA E  13      -5.198  24.955   0.397  1.00 56.27 LIG 0.04  C 
BRANCH 32 34
ATOM     34  C   ALA E  13      -4.065  26.903   1.410  1.00 65.29 LIG 0.24  C 
ATOM     35  N   ALA E  14      -4.724  28.030   1.168  1.00 85.74 LIG-0.35  N 
ATOM     36 H    ALA E  14      -5.073  28.220   0.406  1.00 85.74 LIG 0.16  HD
ATOM     37 O    ALA E  13      -3.572  26.629   2.507  1.00 75.52 LIG-0.27  OA
BRANCH 35 38
ATOM     38  CA  ALA E  14      -4.918  29.054   2.178  1.00 94.46 LIG 0.16  C 
ATOM     39  CB  ALA E  14      -4.987  30.418   1.529  1.00106.12 LIG 0.04  C 
BRANCH 38 40
ATOM     40  C   ALA E  14      -6.187  28.778   2.976  1.00 99.07 LIG 0.22  C 
ATOM     41 O    ALA E  14      -6.815  27.730   2.820  1.00120.33 LIG-0.29  OA
ENDBRANCH 38 40
ENDBRANCH 35 38
ENDBRANCH 32 34
ENDBRANCH 29 32
ENDBRANCH 26 28
ENDBRANCH 23 26
ENDBRANCH 1 22
TORSDOF 13
ENDMDL
MODEL 214
USER: ADFR SOLUTION from run 159
USER: SCORE 4.155976 LL:  -1.362 LR:  -3.631 RR:   0.000 FEB:   0.247
USER: RMSD 5.407228
USER: SEED 158
USER: STATUS no improvement in best in 90 clusters for 5 generations
USER: GENES 15
USER: genes 0 Translation |==|  0.59041 0.35997 0.60739
USER: genes 1 Rotation |==|  0.69715 0.42807 0.48555 0.95359
USER: genes 2 Torsion [CB]-CA--N-[C] |==|  0.86111
USER: genes 3 Torsion [N]-C--CA-[N] |==|  0.96269
USER: genes 4 Torsion [C]-CA--N-[C] |==|  0.75617
USER: genes 5 Torsion [N]-C--CA-[N] |==|  0.05976
USER: genes 6 Torsion [C]-CA--N-[C] |==|  0.74396
USER: genes 7 Torsion [N]-C--CA-[N] |==|  0.58973
USER: genes 8 Torsion [N]-CA--C-[N] |==|  0.89584
USER: genes 9 Torsion [C]-N--CA-[CB] |==|  0.86055
USER: genes 10 Torsion [N]-CA--C-[N] |==|  0.91471
USER: genes 11 Torsion [C]-N--CA-[CB] |==|  0.18561
USER: genes 12 Torsion [N]-CA--C-[N] |==|  0.07117
USER: genes 13 Torsion [C]-N--CA-[C] |==|  0.71687
USER: genes 14 Torsion [N]-CA--C-[O] |==|  0.81760
ROOT
ATOM      1  CA  ALA E  11       0.814  21.109   3.127  1.00 85.35 LIG 0.17  C 
ATOM      2  CB  ALA E  11      -0.387  20.788   4.018  1.00 80.46 LIG 0.04  C 
ENDROOT
BRANCH 1 3
ATOM      3  N   ALA E  11       1.766  21.945   3.849  1.00 87.15 LIG-0.35  N 
ATOM      4  C   ALA E  10       1.353  23.046   4.483  1.00 62.15 LIG 0.24  C 
ATOM      5 O    ALA E  10       0.160  23.294   4.662  1.00 65.72 LIG-0.27  OA
ATOM      6 H    ALA E  11       2.581  21.672   3.828  1.00 87.15 LIG 0.16  HD
BRANCH 4 7
ATOM      7  CA  ALA E  10       2.420  24.007   4.994  1.00 66.45 LIG 0.17  C 
ATOM      8  CB  ALA E  10       2.422  25.289   4.163  1.00 58.63 LIG 0.04  C 
BRANCH 7 9
ATOM      9  N   ALA E  10       3.746  23.407   4.976  1.00 75.43 LIG-0.35  N 
ATOM     10  C   ALA E   9       4.233  22.694   5.989  1.00 82.21 LIG 0.24  C 
ATOM     11 O    ALA E   9       3.621  22.505   7.046  1.00 73.75 LIG-0.27  OA
ATOM     12 H    ALA E  10       4.185  23.557   4.251  1.00 75.43 LIG 0.16  HD
BRANCH 10 13
ATOM     13  CA  ALA E   9       5.633  22.128   5.797  1.00 87.65 LIG 0.17  C 
ATOM     14  CB  ALA E   9       6.416  22.143   7.108  1.00 72.21 LIG 0.04  C 
BRANCH 13 15
ATOM     15  N   ALA E   9       6.299  22.918   4.769  1.00 84.24 LIG-0.35  N 
ATOM     16 H    ALA E   9       6.708  23.613   5.069  1.00 84.24 LIG 0.16  HD
ATOM     17  C   ALA E   8       6.268  22.583   3.486  1.00 61.40 LIG 0.26  C 
ATOM     18 O    ALA E   8       5.759  21.538   3.085  1.00 66.21 LIG-0.27  OA
BRANCH 17 19
ATOM     19  CA  ALA E   8       6.932  23.555   2.517  1.00 67.03 LIG 0.40  C 
ATOM     20  N   ALA E   8       6.229  23.549   1.199  1.00 60.26 LIG 0.61  N 
ATOM     21  CB  ALA E   8       6.956  24.964   3.100  1.00 64.64 LIG 0.06  C 
ENDBRANCH 17 19
ENDBRANCH 13 15
ENDBRANCH 10 13
ENDBRANCH 7 9
ENDBRANCH 4 7
ENDBRANCH 1 3
BRANCH 1 22
ATOM     22  C   ALA E  11       0.351  21.775   1.837  1.00 81.78 LIG 0.24  C 
ATOM     23  N   ALA E  12       0.166  23.094   1.859  1.00 82.91 LIG-0.35  N 
ATOM     24 H    ALA E  12       0.393  23.610   2.509  1.00 82.91 LIG 0.16  HD
ATOM     25 O    ALA E  11       0.146  21.102   0.820  1.00 89.30 LIG-0.27  OA
BRANCH 23 26
ATOM     26  CA  ALA E  12      -0.459  23.765   0.727  1.00 61.10 LIG 0.17  C 
ATOM     27  CB  ALA E  12       0.217  23.355  -0.590  1.00 65.27 LIG 0.04  C 
BRANCH 26 28
ATOM     28  C   ALA E  12      -1.947  23.456   0.680  1.00 54.59 LIG 0.24  C 
ATOM     29  N   ALA E  13      -2.284  22.259   1.159  1.00 64.78 LIG-0.35  N 
ATOM     30 H    ALA E  13      -1.727  21.717   1.528  1.00 64.78 LIG 0.16  HD
ATOM     31 O    ALA E  12      -2.762  24.282   0.262  1.00 69.11 LIG-0.27  OA
BRANCH 29 32
ATOM     32  CA  ALA E  13      -3.648  21.759   1.095  1.00 54.23 LIG 0.17  C 
ATOM     33  CB  ALA E  13      -4.047  21.515  -0.361  1.00 56.27 LIG 0.04  C 
BRANCH 32 34
ATOM     34  C   ALA E  13      -3.826  20.461   1.863  1.00 65.29 LIG 0.24  C 
ATOM     35  N   ALA E  14      -2.964  20.267   2.855  1.00 85.74 LIG-0.35  N 
ATOM     36 H    ALA E  14      -2.323  20.809   3.038  1.00 85.74 LIG 0.16  HD
ATOM     37 O    ALA E  13      -4.750  19.686   1.607  1.00 75.52 LIG-0.27  OA
BRANCH 35 38
ATOM     38  CA  ALA E  14      -3.027  19.110   3.730  1.00 94.46 LIG 0.16  C 
ATOM     39  CB  ALA E  14      -1.643  18.539   3.938  1.00106.12 LIG 0.04  C 
BRANCH 38 40
ATOM     40  C   ALA E  14      -3.656  19.489   5.065  1.00 99.07 LIG 0.22  C 
ATOM     41 O    ALA E  14      -3.091  20.273   5.828  1.00120.33 LIG-0.29  OA
ENDBRANCH 38 40
ENDBRANCH 35 38
ENDBRANCH 32 34
ENDBRANCH 29 32
ENDBRANCH 26 28
ENDBRANCH 23 26
ENDBRANCH 1 22
TORSDOF 13
ENDMDL
MODEL 215
USER: ADFR SOLUTION from run 106
USER: SCORE 5.129156 LL:  -3.350 LR:  -3.630 RR:   0.000 FEB:   0.248
USER: RMSD 5.225417
USER: SEED 105
USER: STATUS no improvement in best in 94 clusters for 5 generations
USER: GENES 15
USER: genes 0 Translation |==|  0.57423 0.39714 0.59779
USER: genes 1 Rotation |==|  0.81114 0.56620 0.48153 0.88532
USER: genes 2 Torsion [CB]-CA--N-[C] |==|  0.82235
USER: genes 3 Torsion [N]-C--CA-[N] |==|  0.88642
USER: genes 4 Torsion [C]-CA--N-[C] |==|  0.75781
USER: genes 5 Torsion [N]-C--CA-[N] |==|  0.05665
USER: genes 6 Torsion [C]-CA--N-[C] |==|  0.71727
USER: genes 7 Torsion [N]-C--CA-[N] |==|  0.62565
USER: genes 8 Torsion [N]-CA--C-[N] |==|  0.52663
USER: genes 9 Torsion [C]-N--CA-[CB] |==|  0.81063
USER: genes 10 Torsion [N]-CA--C-[N] |==|  0.09498
USER: genes 11 Torsion [C]-N--CA-[CB] |==|  0.82989
USER: genes 12 Torsion [N]-CA--C-[N] |==|  0.98820
USER: genes 13 Torsion [C]-N--CA-[C] |==|  0.75621
USER: genes 14 Torsion [N]-CA--C-[O] |==|  0.98605
ROOT
ATOM      1  CA  ALA E  11       0.450  21.777   2.954  1.00 85.35 LIG 0.17  C 
ATOM      2  CB  ALA E  11      -0.109  20.684   3.866  1.00 80.46 LIG 0.04  C 
ENDROOT
BRANCH 1 3
ATOM      3  N   ALA E  11       1.527  22.493   3.630  1.00 87.15 LIG-0.35  N 
ATOM      4  C   ALA E  10       1.278  23.201   4.735  1.00 62.15 LIG 0.24  C 
ATOM      5 O    ALA E  10       0.208  23.124   5.340  1.00 65.72 LIG-0.27  OA
ATOM      6 H    ALA E  11       2.301  22.416   3.264  1.00 87.15 LIG 0.16  HD
BRANCH 4 7
ATOM      7  CA  ALA E  10       2.379  24.127   5.241  1.00 66.45 LIG 0.17  C 
ATOM      8  CB  ALA E  10       2.363  25.444   4.467  1.00 58.63 LIG 0.04  C 
BRANCH 7 9
ATOM      9  N   ALA E  10       3.695  23.512   5.141  1.00 75.43 LIG-0.35  N 
ATOM     10  C   ALA E   9       4.209  22.741   6.096  1.00 82.21 LIG 0.24  C 
ATOM     11 O    ALA E   9       3.634  22.504   7.164  1.00 73.75 LIG-0.27  OA
ATOM     12 H    ALA E  10       4.108  23.694   4.409  1.00 75.43 LIG 0.16  HD
BRANCH 10 13
ATOM     13  CA  ALA E   9       5.593  22.168   5.821  1.00 87.65 LIG 0.17  C 
ATOM     14  CB  ALA E   9       6.434  22.131   7.095  1.00 72.21 LIG 0.04  C 
BRANCH 13 15
ATOM     15  N   ALA E   9       6.220  22.988   4.792  1.00 84.24 LIG-0.35  N 
ATOM     16 H    ALA E   9       6.537  23.733   5.081  1.00 84.24 LIG 0.16  HD
ATOM     17  C   ALA E   8       6.289  22.604   3.525  1.00 61.40 LIG 0.26  C 
ATOM     18 O    ALA E   8       5.915  21.496   3.145  1.00 66.21 LIG-0.27  OA
BRANCH 17 19
ATOM     19  CA  ALA E   8       6.893  23.607   2.546  1.00 67.03 LIG 0.40  C 
ATOM     20  N   ALA E   8       6.064  23.698   1.307  1.00 60.26 LIG 0.61  N 
ATOM     21  CB  ALA E   8       7.027  24.979   3.197  1.00 64.64 LIG 0.06  C 
ENDBRANCH 17 19
ENDBRANCH 13 15
ENDBRANCH 10 13
ENDBRANCH 7 9
ENDBRANCH 4 7
ENDBRANCH 1 3
BRANCH 1 22
ATOM     22  C   ALA E  11      -0.663  22.723   2.521  1.00 81.78 LIG 0.24  C 
ATOM     23  N   ALA E  12      -1.791  22.179   2.069  1.00 82.91 LIG-0.35  N 
ATOM     24 H    ALA E  12      -1.980  21.340   2.106  1.00 82.91 LIG 0.16  HD
ATOM     25 O    ALA E  11      -0.507  23.949   2.581  1.00 89.30 LIG-0.27  OA
BRANCH 23 26
ATOM     26  CA  ALA E  12      -2.816  23.015   1.459  1.00 61.10 LIG 0.17  C 
ATOM     27  CB  ALA E  12      -3.459  23.939   2.505  1.00 65.27 LIG 0.04  C 
BRANCH 26 28
ATOM     28  C   ALA E  12      -2.228  23.832   0.319  1.00 54.59 LIG 0.24  C 
ATOM     29  N   ALA E  13      -1.265  23.218  -0.369  1.00 64.78 LIG-0.35  N 
ATOM     30 H    ALA E  13      -1.027  22.403  -0.234  1.00 64.78 LIG 0.16  HD
ATOM     31 O    ALA E  12      -2.655  24.957   0.047  1.00 69.11 LIG-0.27  OA
BRANCH 29 32
ATOM     32  CA  ALA E  13      -0.523  23.890  -1.423  1.00 54.23 LIG 0.17  C 
ATOM     33  CB  ALA E  13      -1.475  24.319  -2.540  1.00 56.27 LIG 0.04  C 
BRANCH 32 34
ATOM     34  C   ALA E  13       0.210  25.121  -0.922  1.00 65.29 LIG 0.24  C 
ATOM     35  N   ALA E  14      -0.010  25.433   0.350  1.00 85.74 LIG-0.35  N 
ATOM     36 H    ALA E  14      -0.555  25.002   0.857  1.00 85.74 LIG 0.16  HD
ATOM     37 O    ALA E  13       0.999  25.737  -1.644  1.00 75.52 LIG-0.27  OA
BRANCH 35 38
ATOM     38  CA  ALA E  14       0.655  26.542   1.009  1.00 94.46 LIG 0.16  C 
ATOM     39  CB  ALA E  14      -0.235  27.117   2.087  1.00106.12 LIG 0.04  C 
BRANCH 38 40
ATOM     40  C   ALA E  14       1.985  26.087   1.600  1.00 99.07 LIG 0.22  C 
ATOM     41 O    ALA E  14       2.318  24.902   1.565  1.00120.33 LIG-0.29  OA
ENDBRANCH 38 40
ENDBRANCH 35 38
ENDBRANCH 32 34
ENDBRANCH 29 32
ENDBRANCH 26 28
ENDBRANCH 23 26
ENDBRANCH 1 22
TORSDOF 13
ENDMDL
MODEL 216
USER: ADFR SOLUTION from run 195
USER: SCORE 4.549083 LL:  -2.477 LR:  -3.625 RR:   0.000 FEB:   0.253
USER: RMSD 4.993040
USER: SEED 194
USER: STATUS no improvement in best in 70 clusters for 5 generations
USER: GENES 15
USER: genes 0 Translation |==|  0.58242 0.37346 0.60517
USER: genes 1 Rotation |==|  0.73559 0.50364 0.47850 0.94048
USER: genes 2 Torsion [CB]-CA--N-[C] |==|  0.87192
USER: genes 3 Torsion [N]-C--CA-[N] |==|  0.89656
USER: genes 4 Torsion [C]-CA--N-[C] |==|  0.77632
USER: genes 5 Torsion [N]-C--CA-[N] |==|  0.05556
USER: genes 6 Torsion [C]-CA--N-[C] |==|  0.73473
USER: genes 7 Torsion [N]-C--CA-[N] |==|  0.93228
USER: genes 8 Torsion [N]-CA--C-[N] |==|  0.86439
USER: genes 9 Torsion [C]-N--CA-[CB] |==|  0.17500
USER: genes 10 Torsion [N]-CA--C-[N] |==|  0.60620
USER: genes 11 Torsion [C]-N--CA-[CB] |==|  0.17924
USER: genes 12 Torsion [N]-CA--C-[N] |==|  0.09611
USER: genes 13 Torsion [C]-N--CA-[C] |==|  0.58551
USER: genes 14 Torsion [N]-CA--C-[O] |==|  0.96103
ROOT
ATOM      1  CA  ALA E  11       0.634  21.351   3.087  1.00 85.35 LIG 0.17  C 
ATOM      2  CB  ALA E  11      -0.237  20.736   4.184  1.00 80.46 LIG 0.04  C 
ENDROOT
BRANCH 1 3
ATOM      3  N   ALA E  11       1.672  22.188   3.680  1.00 87.15 LIG-0.35  N 
ATOM      4  C   ALA E  10       1.367  23.057   4.648  1.00 62.15 LIG 0.24  C 
ATOM      5 O    ALA E  10       0.276  23.052   5.218  1.00 65.72 LIG-0.27  OA
ATOM      6 H    ALA E  11       2.461  22.071   3.360  1.00 87.15 LIG 0.16  HD
BRANCH 4 7
ATOM      7  CA  ALA E  10       2.433  24.074   5.041  1.00 66.45 LIG 0.17  C 
ATOM      8  CB  ALA E  10       2.367  25.293   4.123  1.00 58.63 LIG 0.04  C 
BRANCH 7 9
ATOM      9  N   ALA E  10       3.771  23.502   5.007  1.00 75.43 LIG-0.35  N 
ATOM     10  C   ALA E   9       4.266  22.755   5.991  1.00 82.21 LIG 0.24  C 
ATOM     11 O    ALA E   9       3.650  22.507   7.034  1.00 73.75 LIG-0.27  OA
ATOM     12 H    ALA E  10       4.211  23.693   4.292  1.00 75.43 LIG 0.16  HD
BRANCH 10 13
ATOM     13  CA  ALA E   9       5.678  22.226   5.783  1.00 87.65 LIG 0.17  C 
ATOM     14  CB  ALA E   9       6.465  22.234   7.092  1.00 72.21 LIG 0.04  C 
BRANCH 13 15
ATOM     15  N   ALA E   9       6.322  23.052   4.770  1.00 84.24 LIG-0.35  N 
ATOM     16 H    ALA E   9       6.676  23.773   5.077  1.00 84.24 LIG 0.16  HD
ATOM     17  C   ALA E   8       6.350  22.709   3.489  1.00 61.40 LIG 0.26  C 
ATOM     18 O    ALA E   8       5.922  21.632   3.081  1.00 66.21 LIG-0.27  OA
BRANCH 17 19
ATOM     19  CA  ALA E   8       6.980  23.718   2.533  1.00 67.03 LIG 0.40  C 
ATOM     20  N   ALA E   8       6.911  25.097   3.102  1.00 60.26 LIG 0.61  N 
ATOM     21  CB  ALA E   8       8.425  23.341   2.228  1.00 64.64 LIG 0.06  C 
ENDBRANCH 17 19
ENDBRANCH 13 15
ENDBRANCH 10 13
ENDBRANCH 7 9
ENDBRANCH 4 7
ENDBRANCH 1 3
BRANCH 1 22
ATOM     22  C   ALA E  11      -0.228  22.140   2.109  1.00 81.78 LIG 0.24  C 
ATOM     23  N   ALA E  12      -0.708  23.313   2.520  1.00 82.91 LIG-0.35  N 
ATOM     24 H    ALA E  12      -0.479  23.707   3.249  1.00 82.91 LIG 0.16  HD
ATOM     25 O    ALA E  11      -0.475  21.690   0.984  1.00 89.30 LIG-0.27  OA
BRANCH 23 26
ATOM     26  CA  ALA E  12      -1.692  24.024   1.716  1.00 61.10 LIG 0.17  C 
ATOM     27  CB  ALA E  12      -2.988  23.208   1.594  1.00 65.27 LIG 0.04  C 
BRANCH 26 28
ATOM     28  C   ALA E  12      -1.980  25.392   2.313  1.00 54.59 LIG 0.24  C 
ATOM     29  N   ALA E  13      -3.255  25.774   2.245  1.00 64.78 LIG-0.35  N 
ATOM     30 H    ALA E  13      -3.889  25.273   1.949  1.00 64.78 LIG 0.16  HD
ATOM     31 O    ALA E  12      -1.091  26.060   2.848  1.00 69.11 LIG-0.27  OA
BRANCH 29 32
ATOM     32  CA  ALA E  13      -3.689  27.095   2.673  1.00 54.23 LIG 0.17  C 
ATOM     33  CB  ALA E  13      -3.062  28.165   1.779  1.00 56.27 LIG 0.04  C 
BRANCH 32 34
ATOM     34  C   ALA E  13      -5.198  27.253   2.621  1.00 65.29 LIG 0.24  C 
ATOM     35  N   ALA E  14      -5.893  26.161   2.917  1.00 85.74 LIG-0.35  N 
ATOM     36 H    ALA E  14      -5.531  25.401   3.090  1.00 85.74 LIG 0.16  HD
ATOM     37 O    ALA E  13      -5.720  28.345   2.382  1.00 75.52 LIG-0.27  OA
BRANCH 35 38
ATOM     38  CA  ALA E  14      -7.344  26.150   2.975  1.00 94.46 LIG 0.16  C 
ATOM     39  CB  ALA E  14      -7.917  25.844   1.611  1.00106.12 LIG 0.04  C 
BRANCH 38 40
ATOM     40  C   ALA E  14      -7.825  25.128   3.999  1.00 99.07 LIG 0.22  C 
ATOM     41 O    ALA E  14      -7.056  24.279   4.451  1.00120.33 LIG-0.29  OA
ENDBRANCH 38 40
ENDBRANCH 35 38
ENDBRANCH 32 34
ENDBRANCH 29 32
ENDBRANCH 26 28
ENDBRANCH 23 26
ENDBRANCH 1 22
TORSDOF 13
ENDMDL
MODEL 217
USER: ADFR SOLUTION from run 23
USER: SCORE 3.606547 LL:  -2.753 LR:  -3.626 RR:   0.000 FEB:   0.251
USER: RMSD 4.384969
USER: SEED 22
USER: STATUS no improvement in best in 83 clusters for 5 generations
USER: GENES 15
USER: genes 0 Translation |==|  0.58239 0.44137 0.65576
USER: genes 1 Rotation |==|  0.58955 0.37941 0.46923 0.97591
USER: genes 2 Torsion [CB]-CA--N-[C] |==|  0.34049
USER: genes 3 Torsion [N]-C--CA-[N] |==|  0.08543
USER: genes 4 Torsion [C]-CA--N-[C] |==|  0.62524
USER: genes 5 Torsion [N]-C--CA-[N] |==|  0.52283
USER: genes 6 Torsion [C]-CA--N-[C] |==|  0.75266
USER: genes 7 Torsion [N]-C--CA-[N] |==|  0.49522
USER: genes 8 Torsion [N]-CA--C-[N] |==|  0.89325
USER: genes 9 Torsion [C]-N--CA-[CB] |==|  0.84417
USER: genes 10 Torsion [N]-CA--C-[N] |==|  0.38903
USER: genes 11 Torsion [C]-N--CA-[CB] |==|  0.85555
USER: genes 12 Torsion [N]-CA--C-[N] |==|  0.88940
USER: genes 13 Torsion [C]-N--CA-[C] |==|  0.71164
USER: genes 14 Torsion [N]-CA--C-[O] |==|  0.97513
ROOT
ATOM      1  CA  ALA E  11       0.634  22.574   3.998  1.00 85.35 LIG 0.17  C 
ATOM      2  CB  ALA E  11      -0.676  22.859   4.734  1.00 80.46 LIG 0.04  C 
ENDROOT
BRANCH 1 3
ATOM      3  N   ALA E  11       1.682  23.470   4.473  1.00 87.15 LIG-0.35  N 
ATOM      4  C   ALA E  10       2.813  22.975   4.984  1.00 62.15 LIG 0.24  C 
ATOM      5 O    ALA E  10       3.111  21.784   4.893  1.00 65.72 LIG-0.27  OA
ATOM      6 H    ALA E  11       1.508  24.308   4.395  1.00 87.15 LIG 0.16  HD
BRANCH 4 7
ATOM      7  CA  ALA E  10       3.749  23.947   5.693  1.00 66.45 LIG 0.17  C 
ATOM      8  CB  ALA E  10       4.586  23.211   6.738  1.00 58.63 LIG 0.04  C 
BRANCH 7 9
ATOM      9  N   ALA E  10       3.023  25.039   6.325  1.00 75.43 LIG-0.35  N 
ATOM     10  C   ALA E   9       3.403  26.311   6.234  1.00 82.21 LIG 0.24  C 
ATOM     11 O    ALA E   9       4.421  26.677   5.636  1.00 73.75 LIG-0.27  OA
ATOM     12 H    ALA E  10       2.327  24.786   6.762  1.00 75.43 LIG 0.16  HD
BRANCH 10 13
ATOM     13  CA  ALA E   9       2.519  27.327   6.945  1.00 87.65 LIG 0.17  C 
ATOM     14  CB  ALA E   9       1.049  27.120   6.586  1.00 72.21 LIG 0.04  C 
BRANCH 13 15
ATOM     15  N   ALA E   9       2.977  28.659   6.571  1.00 84.24 LIG-0.35  N 
ATOM     16 H    ALA E   9       2.585  28.984   5.877  1.00 84.24 LIG 0.16  HD
ATOM     17  C   ALA E   8       3.916  29.302   7.250  1.00 61.40 LIG 0.26  C 
ATOM     18 O    ALA E   8       4.399  28.864   8.293  1.00 66.21 LIG-0.27  OA
BRANCH 17 19
ATOM     19  CA  ALA E   8       4.356  30.649   6.687  1.00 67.03 LIG 0.40  C 
ATOM     20  N   ALA E   8       5.384  31.279   7.568  1.00 60.26 LIG 0.61  N 
ATOM     21  CB  ALA E   8       4.898  30.489   5.270  1.00 64.64 LIG 0.06  C 
ENDBRANCH 17 19
ENDBRANCH 13 15
ENDBRANCH 10 13
ENDBRANCH 7 9
ENDBRANCH 4 7
ENDBRANCH 1 3
BRANCH 1 22
ATOM     22  C   ALA E  11       0.431  22.700   2.493  1.00 81.78 LIG 0.24  C 
ATOM     23  N   ALA E  12       0.516  23.918   1.961  1.00 82.91 LIG-0.35  N 
ATOM     24 H    ALA E  12       0.784  24.619   2.382  1.00 82.91 LIG 0.16  HD
ATOM     25 O    ALA E  11       0.185  21.702   1.805  1.00 89.30 LIG-0.27  OA
BRANCH 23 26
ATOM     26  CA  ALA E  12       0.142  24.138   0.570  1.00 61.10 LIG 0.17  C 
ATOM     27  CB  ALA E  12       0.945  23.218  -0.362  1.00 65.27 LIG 0.04  C 
BRANCH 26 28
ATOM     28  C   ALA E  12      -1.350  23.919   0.378  1.00 54.59 LIG 0.24  C 
ATOM     29  N   ALA E  13      -1.942  24.789  -0.440  1.00 64.78 LIG-0.35  N 
ATOM     30 H    ALA E  13      -1.518  25.392  -0.884  1.00 64.78 LIG 0.16  HD
ATOM     31 O    ALA E  12      -1.937  22.977   0.919  1.00 69.11 LIG-0.27  OA
BRANCH 29 32
ATOM     32  CA  ALA E  13      -3.380  24.790  -0.656  1.00 54.23 LIG 0.17  C 
ATOM     33  CB  ALA E  13      -3.852  23.386  -1.036  1.00 56.27 LIG 0.04  C 
BRANCH 32 34
ATOM     34  C   ALA E  13      -4.149  25.236   0.575  1.00 65.29 LIG 0.24  C 
ATOM     35  N   ALA E  14      -3.679  24.784   1.732  1.00 85.74 LIG-0.35  N 
ATOM     36 H    ALA E  14      -3.011  24.246   1.795  1.00 85.74 LIG 0.16  HD
ATOM     37 O    ALA E  13      -5.103  26.013   0.488  1.00 75.52 LIG-0.27  OA
BRANCH 35 38
ATOM     38  CA  ALA E  14      -4.256  25.159   3.010  1.00 94.46 LIG 0.16  C 
ATOM     39  CB  ALA E  14      -4.437  23.936   3.879  1.00106.12 LIG 0.04  C 
BRANCH 38 40
ATOM     40  C   ALA E  14      -3.371  26.186   3.709  1.00 99.07 LIG 0.22  C 
ATOM     41 O    ALA E  14      -2.255  26.461   3.269  1.00120.33 LIG-0.29  OA
ENDBRANCH 38 40
ENDBRANCH 35 38
ENDBRANCH 32 34
ENDBRANCH 29 32
ENDBRANCH 26 28
ENDBRANCH 23 26
ENDBRANCH 1 22
TORSDOF 13
ENDMDL
MODEL 218
USER: ADFR SOLUTION from run 195
USER: SCORE 4.968800 LL:  -2.080 LR:  -3.635 RR:   0.000 FEB:   0.243
USER: RMSD 5.243611
USER: SEED 194
USER: STATUS no improvement in best in 70 clusters for 5 generations
USER: GENES 15
USER: genes 0 Translation |==|  0.58241 0.37346 0.60517
USER: genes 1 Rotation |==|  0.73573 0.50383 0.47862 0.94041
USER: genes 2 Torsion [CB]-CA--N-[C] |==|  0.87195
USER: genes 3 Torsion [N]-C--CA-[N] |==|  0.89659
USER: genes 4 Torsion [C]-CA--N-[C] |==|  0.77632
USER: genes 5 Torsion [N]-C--CA-[N] |==|  0.05556
USER: genes 6 Torsion [C]-CA--N-[C] |==|  0.73473
USER: genes 7 Torsion [N]-C--CA-[N] |==|  0.93228
USER: genes 8 Torsion [N]-CA--C-[N] |==|  0.36693
USER: genes 9 Torsion [C]-N--CA-[CB] |==|  0.82917
USER: genes 10 Torsion [N]-CA--C-[N] |==|  0.38395
USER: genes 11 Torsion [C]-N--CA-[CB] |==|  0.51680
USER: genes 12 Torsion [N]-CA--C-[N] |==|  0.43356
USER: genes 13 Torsion [C]-N--CA-[C] |==|  0.79070
USER: genes 14 Torsion [N]-CA--C-[O] |==|  0.98008
ROOT
ATOM      1  CA  ALA E  11       0.634  21.351   3.087  1.00 85.35 LIG 0.17  C 
ATOM      2  CB  ALA E  11      -0.236  20.735   4.184  1.00 80.46 LIG 0.04  C 
ENDROOT
BRANCH 1 3
ATOM      3  N   ALA E  11       1.671  22.188   3.681  1.00 87.15 LIG-0.35  N 
ATOM      4  C   ALA E  10       1.367  23.056   4.649  1.00 62.15 LIG 0.24  C 
ATOM      5 O    ALA E  10       0.275  23.051   5.219  1.00 65.72 LIG-0.27  OA
ATOM      6 H    ALA E  11       2.461  22.072   3.360  1.00 87.15 LIG 0.16  HD
BRANCH 4 7
ATOM      7  CA  ALA E  10       2.431  24.074   5.043  1.00 66.45 LIG 0.17  C 
ATOM      8  CB  ALA E  10       2.364  25.294   4.125  1.00 58.63 LIG 0.04  C 
BRANCH 7 9
ATOM      9  N   ALA E  10       3.770  23.504   5.006  1.00 75.43 LIG-0.35  N 
ATOM     10  C   ALA E   9       4.266  22.756   5.989  1.00 82.21 LIG 0.24  C 
ATOM     11 O    ALA E   9       3.652  22.506   7.033  1.00 73.75 LIG-0.27  OA
ATOM     12 H    ALA E  10       4.209  23.695   4.292  1.00 75.43 LIG 0.16  HD
BRANCH 10 13
ATOM     13  CA  ALA E   9       5.679  22.228   5.781  1.00 87.65 LIG 0.17  C 
ATOM     14  CB  ALA E   9       6.466  22.236   7.089  1.00 72.21 LIG 0.04  C 
BRANCH 13 15
ATOM     15  N   ALA E   9       6.321  23.056   4.768  1.00 84.24 LIG-0.35  N 
ATOM     16 H    ALA E   9       6.675  23.777   5.075  1.00 84.24 LIG 0.16  HD
ATOM     17  C   ALA E   8       6.349  22.714   3.487  1.00 61.40 LIG 0.26  C 
ATOM     18 O    ALA E   8       5.922  21.637   3.078  1.00 66.21 LIG-0.27  OA
BRANCH 17 19
ATOM     19  CA  ALA E   8       6.977  23.724   2.531  1.00 67.03 LIG 0.40  C 
ATOM     20  N   ALA E   8       6.907  25.103   3.101  1.00 60.26 LIG 0.61  N 
ATOM     21  CB  ALA E   8       8.423  23.349   2.225  1.00 64.64 LIG 0.06  C 
ENDBRANCH 17 19
ENDBRANCH 13 15
ENDBRANCH 10 13
ENDBRANCH 7 9
ENDBRANCH 4 7
ENDBRANCH 1 3
BRANCH 1 22
ATOM     22  C   ALA E  11      -0.229  22.140   2.110  1.00 81.78 LIG 0.24  C 
ATOM     23  N   ALA E  12      -0.460  21.596   0.917  1.00 82.91 LIG-0.35  N 
ATOM     24 H    ALA E  12      -0.253  20.790   0.697  1.00 82.91 LIG 0.16  HD
ATOM     25 O    ALA E  11      -0.681  23.248   2.422  1.00 89.30 LIG-0.27  OA
BRANCH 23 26
ATOM     26  CA  ALA E  12      -1.108  22.374  -0.131  1.00 61.10 LIG 0.17  C 
ATOM     27  CB  ALA E  12      -2.518  22.802   0.303  1.00 65.27 LIG 0.04  C 
BRANCH 26 28
ATOM     28  C   ALA E  12      -0.269  23.591  -0.487  1.00 54.59 LIG 0.24  C 
ATOM     29  N   ALA E  13      -0.189  23.850  -1.792  1.00 64.78 LIG-0.35  N 
ATOM     30 H    ALA E  13      -0.623  23.415  -2.394  1.00 64.78 LIG 0.16  HD
ATOM     31 O    ALA E  12       0.254  24.289   0.385  1.00 69.11 LIG-0.27  OA
BRANCH 29 32
ATOM     32  CA  ALA E  13       0.655  24.912  -2.317  1.00 54.23 LIG 0.17  C 
ATOM     33  CB  ALA E  13       0.425  25.067  -3.821  1.00 56.27 LIG 0.04  C 
BRANCH 32 34
ATOM     34  C   ALA E  13       0.382  26.250  -1.652  1.00 65.29 LIG 0.24  C 
ATOM     35  N   ALA E  14       1.387  27.118  -1.693  1.00 85.74 LIG-0.35  N 
ATOM     36 H    ALA E  14       2.155  26.938  -2.033  1.00 85.74 LIG 0.16  HD
ATOM     37 O    ALA E  13      -0.722  26.514  -1.170  1.00 75.52 LIG-0.27  OA
BRANCH 35 38
ATOM     38  CA  ALA E  14       1.279  28.464  -1.160  1.00 94.46 LIG 0.16  C 
ATOM     39  CB  ALA E  14       2.655  29.053  -0.952  1.00106.12 LIG 0.04  C 
BRANCH 38 40
ATOM     40  C   ALA E  14       0.457  29.341  -2.099  1.00 99.07 LIG 0.22  C 
ATOM     41 O    ALA E  14       0.102  28.924  -3.201  1.00120.33 LIG-0.29  OA
ENDBRANCH 38 40
ENDBRANCH 35 38
ENDBRANCH 32 34
ENDBRANCH 29 32
ENDBRANCH 26 28
ENDBRANCH 23 26
ENDBRANCH 1 22
TORSDOF 13
ENDMDL
MODEL 219
USER: ADFR SOLUTION from run 66
USER: SCORE 5.694549 LL:  -3.063 LR:  -3.619 RR:   0.000 FEB:   0.259
USER: RMSD 4.798138
USER: SEED 65
USER: STATUS no improvement in best in 67 clusters for 5 generations
USER: GENES 15
USER: genes 0 Translation |==|  0.66863 0.32732 0.57262
USER: genes 1 Rotation |==|  0.70368 0.63816 0.55895 0.93122
USER: genes 2 Torsion [CB]-CA--N-[C] |==|  0.13940
USER: genes 3 Torsion [N]-C--CA-[N] |==|  0.13487
USER: genes 4 Torsion [C]-CA--N-[C] |==|  0.18245
USER: genes 5 Torsion [N]-C--CA-[N] |==|  0.92219
USER: genes 6 Torsion [C]-CA--N-[C] |==|  0.81911
USER: genes 7 Torsion [N]-C--CA-[N] |==|  0.28577
USER: genes 8 Torsion [N]-CA--C-[N] |==|  0.08986
USER: genes 9 Torsion [C]-N--CA-[CB] |==|  0.12973
USER: genes 10 Torsion [N]-CA--C-[N] |==|  0.06333
USER: genes 11 Torsion [C]-N--CA-[CB] |==|  0.84730
USER: genes 12 Torsion [N]-CA--C-[N] |==|  0.90507
USER: genes 13 Torsion [C]-N--CA-[C] |==|  0.77652
USER: genes 14 Torsion [N]-CA--C-[O] |==|  0.96571
ROOT
ATOM      1  CA  ALA E  11       2.574  20.521   2.501  1.00 85.35 LIG 0.17  C 
ATOM      2  CB  ALA E  11       2.516  19.731   3.810  1.00 80.46 LIG 0.04  C 
ENDROOT
BRANCH 1 3
ATOM      3  N   ALA E  11       3.145  21.842   2.737  1.00 87.15 LIG-0.35  N 
ATOM      4  C   ALA E  10       4.294  21.973   3.405  1.00 62.15 LIG 0.24  C 
ATOM      5 O    ALA E  10       5.017  21.010   3.666  1.00 65.72 LIG-0.27  OA
ATOM      6 H    ALA E  11       2.689  22.498   2.419  1.00 87.15 LIG 0.16  HD
BRANCH 4 7
ATOM      7  CA  ALA E  10       4.701  23.376   3.840  1.00 66.45 LIG 0.17  C 
ATOM      8  CB  ALA E  10       5.912  23.314   4.770  1.00 58.63 LIG 0.04  C 
BRANCH 7 9
ATOM      9  N   ALA E  10       3.610  24.078   4.500  1.00 75.43 LIG-0.35  N 
ATOM     10  C   ALA E   9       3.101  23.694   5.669  1.00 82.21 LIG 0.24  C 
ATOM     11 O    ALA E   9       3.484  22.691   6.282  1.00 73.75 LIG-0.27  OA
ATOM     12 H    ALA E  10       3.325  24.763   4.064  1.00 75.43 LIG 0.16  HD
BRANCH 10 13
ATOM     13  CA  ALA E   9       1.972  24.552   6.222  1.00 87.65 LIG 0.17  C 
ATOM     14  CB  ALA E   9       0.609  23.985   5.829  1.00 72.21 LIG 0.04  C 
BRANCH 13 15
ATOM     15  N   ALA E   9       2.151  25.908   5.717  1.00 84.24 LIG-0.35  N 
ATOM     16 H    ALA E   9       1.524  26.172   5.190  1.00 84.24 LIG 0.16  HD
ATOM     17  C   ALA E   8       3.193  26.656   6.049  1.00 61.40 LIG 0.26  C 
ATOM     18 O    ALA E   8       4.030  26.299   6.876  1.00 66.21 LIG-0.27  OA
BRANCH 17 19
ATOM     19  CA  ALA E   8       3.292  28.019   5.371  1.00 67.03 LIG 0.40  C 
ATOM     20  N   ALA E   8       2.867  29.104   6.305  1.00 60.26 LIG 0.61  N 
ATOM     21  CB  ALA E   8       4.711  28.271   4.874  1.00 64.64 LIG 0.06  C 
ENDBRANCH 17 19
ENDBRANCH 13 15
ENDBRANCH 10 13
ENDBRANCH 7 9
ENDBRANCH 4 7
ENDBRANCH 1 3
BRANCH 1 22
ATOM     22  C   ALA E  11       1.186  20.615   1.880  1.00 81.78 LIG 0.24  C 
ATOM     23  N   ALA E  12       0.945  21.641   1.066  1.00 82.91 LIG-0.35  N 
ATOM     24 H    ALA E  12       1.543  22.189   0.778  1.00 82.91 LIG 0.16  HD
ATOM     25 O    ALA E  11       0.321  19.770   2.141  1.00 89.30 LIG-0.27  OA
BRANCH 23 26
ATOM     26  CA  ALA E  12      -0.409  21.900   0.595  1.00 61.10 LIG 0.17  C 
ATOM     27  CB  ALA E  12      -1.411  21.839   1.757  1.00 65.27 LIG 0.04  C 
BRANCH 26 28
ATOM     28  C   ALA E  12      -0.482  23.251  -0.099  1.00 54.59 LIG 0.24  C 
ATOM     29  N   ALA E  13       0.682  23.702  -0.568  1.00 64.78 LIG-0.35  N 
ATOM     30 H    ALA E  13       1.413  23.249  -0.548  1.00 64.78 LIG 0.16  HD
ATOM     31 O    ALA E  12      -1.554  23.846  -0.238  1.00 69.11 LIG-0.27  OA
BRANCH 29 32
ATOM     32  CA  ALA E  13       0.814  25.021  -1.166  1.00 54.23 LIG 0.17  C 
ATOM     33  CB  ALA E  13      -0.192  25.180  -2.307  1.00 56.27 LIG 0.04  C 
BRANCH 32 34
ATOM     34  C   ALA E  13       0.580  26.137  -0.164  1.00 65.29 LIG 0.24  C 
ATOM     35  N   ALA E  14      -0.326  25.877   0.772  1.00 85.74 LIG-0.35  N 
ATOM     36 H    ALA E  14      -0.783  25.150   0.801  1.00 85.74 LIG 0.16  HD
ATOM     37 O    ALA E  13       1.240  27.178  -0.198  1.00 75.52 LIG-0.27  OA
BRANCH 35 38
ATOM     38  CA  ALA E  14      -0.631  26.808   1.844  1.00 94.46 LIG 0.16  C 
ATOM     39  CB  ALA E  14      -2.012  26.534   2.394  1.00106.12 LIG 0.04  C 
BRANCH 38 40
ATOM     40  C   ALA E  14       0.415  26.705   2.949  1.00 99.07 LIG 0.22  C 
ATOM     41 O    ALA E  14       1.217  25.771   2.972  1.00120.33 LIG-0.29  OA
ENDBRANCH 38 40
ENDBRANCH 35 38
ENDBRANCH 32 34
ENDBRANCH 29 32
ENDBRANCH 26 28
ENDBRANCH 23 26
ENDBRANCH 1 22
TORSDOF 13
ENDMDL
MODEL 220
USER: ADFR SOLUTION from run 195
USER: SCORE 4.856305 LL:  -2.234 LR:  -3.620 RR:   0.000 FEB:   0.258
USER: RMSD 4.765615
USER: SEED 194
USER: STATUS no improvement in best in 70 clusters for 5 generations
USER: GENES 15
USER: genes 0 Translation |==|  0.58241 0.37346 0.60517
USER: genes 1 Rotation |==|  0.73573 0.50383 0.47862 0.94041
USER: genes 2 Torsion [CB]-CA--N-[C] |==|  0.87195
USER: genes 3 Torsion [N]-C--CA-[N] |==|  0.89659
USER: genes 4 Torsion [C]-CA--N-[C] |==|  0.77632
USER: genes 5 Torsion [N]-C--CA-[N] |==|  0.05556
USER: genes 6 Torsion [C]-CA--N-[C] |==|  0.73473
USER: genes 7 Torsion [N]-C--CA-[N] |==|  0.93228
USER: genes 8 Torsion [N]-CA--C-[N] |==|  0.40308
USER: genes 9 Torsion [C]-N--CA-[CB] |==|  0.17221
USER: genes 10 Torsion [N]-CA--C-[N] |==|  0.10830
USER: genes 11 Torsion [C]-N--CA-[CB] |==|  0.51811
USER: genes 12 Torsion [N]-CA--C-[N] |==|  0.43332
USER: genes 13 Torsion [C]-N--CA-[C] |==|  0.79026
USER: genes 14 Torsion [N]-CA--C-[O] |==|  0.96112
ROOT
ATOM      1  CA  ALA E  11       0.634  21.351   3.087  1.00 85.35 LIG 0.17  C 
ATOM      2  CB  ALA E  11      -0.236  20.735   4.184  1.00 80.46 LIG 0.04  C 
ENDROOT
BRANCH 1 3
ATOM      3  N   ALA E  11       1.671  22.188   3.681  1.00 87.15 LIG-0.35  N 
ATOM      4  C   ALA E  10       1.367  23.056   4.649  1.00 62.15 LIG 0.24  C 
ATOM      5 O    ALA E  10       0.275  23.051   5.219  1.00 65.72 LIG-0.27  OA
ATOM      6 H    ALA E  11       2.461  22.072   3.360  1.00 87.15 LIG 0.16  HD
BRANCH 4 7
ATOM      7  CA  ALA E  10       2.431  24.074   5.043  1.00 66.45 LIG 0.17  C 
ATOM      8  CB  ALA E  10       2.364  25.294   4.125  1.00 58.63 LIG 0.04  C 
BRANCH 7 9
ATOM      9  N   ALA E  10       3.770  23.504   5.006  1.00 75.43 LIG-0.35  N 
ATOM     10  C   ALA E   9       4.266  22.756   5.989  1.00 82.21 LIG 0.24  C 
ATOM     11 O    ALA E   9       3.652  22.506   7.033  1.00 73.75 LIG-0.27  OA
ATOM     12 H    ALA E  10       4.209  23.695   4.292  1.00 75.43 LIG 0.16  HD
BRANCH 10 13
ATOM     13  CA  ALA E   9       5.679  22.228   5.781  1.00 87.65 LIG 0.17  C 
ATOM     14  CB  ALA E   9       6.466  22.236   7.089  1.00 72.21 LIG 0.04  C 
BRANCH 13 15
ATOM     15  N   ALA E   9       6.321  23.056   4.768  1.00 84.24 LIG-0.35  N 
ATOM     16 H    ALA E   9       6.675  23.777   5.075  1.00 84.24 LIG 0.16  HD
ATOM     17  C   ALA E   8       6.349  22.714   3.487  1.00 61.40 LIG 0.26  C 
ATOM     18 O    ALA E   8       5.922  21.637   3.078  1.00 66.21 LIG-0.27  OA
BRANCH 17 19
ATOM     19  CA  ALA E   8       6.977  23.724   2.531  1.00 67.03 LIG 0.40  C 
ATOM     20  N   ALA E   8       6.907  25.103   3.101  1.00 60.26 LIG 0.61  N 
ATOM     21  CB  ALA E   8       8.423  23.349   2.225  1.00 64.64 LIG 0.06  C 
ENDBRANCH 17 19
ENDBRANCH 13 15
ENDBRANCH 10 13
ENDBRANCH 7 9
ENDBRANCH 4 7
ENDBRANCH 1 3
BRANCH 1 22
ATOM     22  C   ALA E  11      -0.229  22.140   2.110  1.00 81.78 LIG 0.24  C 
ATOM     23  N   ALA E  12      -0.681  21.499   1.033  1.00 82.91 LIG-0.35  N 
ATOM     24 H    ALA E  12      -0.615  20.651   0.905  1.00 82.91 LIG 0.16  HD
ATOM     25 O    ALA E  11      -0.482  23.333   2.315  1.00 89.30 LIG-0.27  OA
BRANCH 23 26
ATOM     26  CA  ALA E  12      -1.343  22.236  -0.034  1.00 61.10 LIG 0.17  C 
ATOM     27  CB  ALA E  12      -0.386  23.260  -0.664  1.00 65.27 LIG 0.04  C 
BRANCH 26 28
ATOM     28  C   ALA E  12      -1.871  21.282  -1.093  1.00 54.59 LIG 0.24  C 
ATOM     29  N   ALA E  13      -2.392  20.151  -0.616  1.00 64.78 LIG-0.35  N 
ATOM     30 H    ALA E  13      -2.489  19.986   0.223  1.00 64.78 LIG 0.16  HD
ATOM     31 O    ALA E  12      -1.844  21.572  -2.292  1.00 69.11 LIG-0.27  OA
BRANCH 29 32
ATOM     32  CA  ALA E  13      -2.848  19.083  -1.490  1.00 54.23 LIG 0.17  C 
ATOM     33  CB  ALA E  13      -3.539  17.994  -0.668  1.00 56.27 LIG 0.04  C 
BRANCH 32 34
ATOM     34  C   ALA E  13      -3.823  19.574  -2.545  1.00 65.29 LIG 0.24  C 
ATOM     35  N   ALA E  14      -3.895  18.828  -3.642  1.00 85.74 LIG-0.35  N 
ATOM     36 H    ALA E  14      -3.406  18.134  -3.776  1.00 85.74 LIG 0.16  HD
ATOM     37 O    ALA E  13      -4.532  20.564  -2.352  1.00 75.52 LIG-0.27  OA
BRANCH 35 38
ATOM     38  CA  ALA E  14      -4.818  19.117  -4.725  1.00 94.46 LIG 0.16  C 
ATOM     39  CB  ALA E  14      -4.387  18.397  -5.982  1.00106.12 LIG 0.04  C 
BRANCH 38 40
ATOM     40  C   ALA E  14      -6.235  18.713  -4.336  1.00 99.07 LIG 0.22  C 
ATOM     41 O    ALA E  14      -6.440  17.993  -3.358  1.00120.33 LIG-0.29  OA
ENDBRANCH 38 40
ENDBRANCH 35 38
ENDBRANCH 32 34
ENDBRANCH 29 32
ENDBRANCH 26 28
ENDBRANCH 23 26
ENDBRANCH 1 22
TORSDOF 13
ENDMDL
MODEL 221
USER: ADFR SOLUTION from run 119
USER: SCORE 3.061863 LL:  -2.785 LR:  -3.623 RR:   0.000 FEB:   0.254
USER: RMSD 4.124904
USER: SEED 118
USER: STATUS no improvement in best in 76 clusters for 5 generations
USER: GENES 15
USER: genes 0 Translation |==|  0.64057 0.37768 0.60457
USER: genes 1 Rotation |==|  0.53228 0.41565 0.47802 0.99128
USER: genes 2 Torsion [CB]-CA--N-[C] |==|  0.43926
USER: genes 3 Torsion [N]-C--CA-[N] |==|  0.13286
USER: genes 4 Torsion [C]-CA--N-[C] |==|  0.16316
USER: genes 5 Torsion [N]-C--CA-[N] |==|  0.18979
USER: genes 6 Torsion [C]-CA--N-[C] |==|  0.75953
USER: genes 7 Torsion [N]-C--CA-[N] |==|  0.41766
USER: genes 8 Torsion [N]-CA--C-[N] |==|  0.73379
USER: genes 9 Torsion [C]-N--CA-[CB] |==|  0.16563
USER: genes 10 Torsion [N]-CA--C-[N] |==|  0.60292
USER: genes 11 Torsion [C]-N--CA-[CB] |==|  0.20986
USER: genes 12 Torsion [N]-CA--C-[N] |==|  0.06421
USER: genes 13 Torsion [C]-N--CA-[C] |==|  0.75504
USER: genes 14 Torsion [N]-CA--C-[O] |==|  0.01199
ROOT
ATOM      1  CA  ALA E  11       1.943  21.427   3.076  1.00 85.35 LIG 0.17  C 
ATOM      2  CB  ALA E  11       0.759  21.887   3.929  1.00 80.46 LIG 0.04  C 
ENDROOT
BRANCH 1 3
ATOM      3  N   ALA E  11       3.030  22.397   3.163  1.00 87.15 LIG-0.35  N 
ATOM      4  C   ALA E  10       4.284  22.033   2.882  1.00 62.15 LIG 0.24  C 
ATOM      5 O    ALA E  10       4.554  20.954   2.353  1.00 65.72 LIG-0.27  OA
ATOM      6 H    ALA E  11       2.793  23.189   3.401  1.00 87.15 LIG 0.16  HD
BRANCH 4 7
ATOM      7  CA  ALA E  10       5.397  23.011   3.239  1.00 66.45 LIG 0.17  C 
ATOM      8  CB  ALA E  10       6.762  22.346   3.072  1.00 58.63 LIG 0.04  C 
BRANCH 7 9
ATOM      9  N   ALA E  10       5.260  23.521   4.595  1.00 75.43 LIG-0.35  N 
ATOM     10  C   ALA E   9       5.245  22.733   5.668  1.00 82.21 LIG 0.24  C 
ATOM     11 O    ALA E   9       5.311  21.500   5.609  1.00 73.75 LIG-0.27  OA
ATOM     12 H    ALA E  10       5.190  24.377   4.638  1.00 75.43 LIG 0.16  HD
BRANCH 10 13
ATOM     13  CA  ALA E   9       5.108  23.435   7.012  1.00 87.65 LIG 0.17  C 
ATOM     14  CB  ALA E   9       5.367  22.468   8.165  1.00 72.21 LIG 0.04  C 
BRANCH 13 15
ATOM     15  N   ALA E   9       3.769  24.006   7.085  1.00 84.24 LIG-0.35  N 
ATOM     16 H    ALA E   9       3.190  23.496   7.466  1.00 84.24 LIG 0.16  HD
ATOM     17  C   ALA E   8       3.483  25.207   6.603  1.00 61.40 LIG 0.26  C 
ATOM     18 O    ALA E   8       4.341  25.961   6.147  1.00 66.21 LIG-0.27  OA
BRANCH 17 19
ATOM     19  CA  ALA E   8       2.019  25.632   6.670  1.00 67.03 LIG 0.40  C 
ATOM     20  N   ALA E   8       1.907  27.116   6.798  1.00 60.26 LIG 0.61  N 
ATOM     21  CB  ALA E   8       1.262  25.146   5.439  1.00 64.64 LIG 0.06  C 
ENDBRANCH 17 19
ENDBRANCH 13 15
ENDBRANCH 10 13
ENDBRANCH 7 9
ENDBRANCH 4 7
ENDBRANCH 1 3
BRANCH 1 22
ATOM     22  C   ALA E  11       1.502  21.211   1.634  1.00 81.78 LIG 0.24  C 
ATOM     23  N   ALA E  12       0.457  21.913   1.199  1.00 82.91 LIG-0.35  N 
ATOM     24 H    ALA E  12       0.084  22.556   1.632  1.00 82.91 LIG 0.16  HD
ATOM     25 O    ALA E  11       2.092  20.400   0.910  1.00 89.30 LIG-0.27  OA
BRANCH 23 26
ATOM     26  CA  ALA E  12      -0.137  21.615  -0.098  1.00 61.10 LIG 0.17  C 
ATOM     27  CB  ALA E  12      -0.642  20.165  -0.146  1.00 65.27 LIG 0.04  C 
BRANCH 26 28
ATOM     28  C   ALA E  12      -1.271  22.583  -0.399  1.00 54.59 LIG 0.24  C 
ATOM     29  N   ALA E  13      -2.311  22.044  -1.035  1.00 64.78 LIG-0.35  N 
ATOM     30 H    ALA E  13      -2.381  21.205  -1.211  1.00 64.78 LIG 0.16  HD
ATOM     31 O    ALA E  12      -1.224  23.762  -0.038  1.00 69.11 LIG-0.27  OA
BRANCH 29 32
ATOM     32  CA  ALA E  13      -3.435  22.845  -1.493  1.00 54.23 LIG 0.17  C 
ATOM     33  CB  ALA E  13      -3.041  23.630  -2.745  1.00 56.27 LIG 0.04  C 
BRANCH 32 34
ATOM     34  C   ALA E  13      -4.652  22.000  -1.822  1.00 65.29 LIG 0.24  C 
ATOM     35  N   ALA E  14      -4.699  20.815  -1.223  1.00 85.74 LIG-0.35  N 
ATOM     36 H    ALA E  14      -4.075  20.518  -0.712  1.00 85.74 LIG 0.16  HD
ATOM     37 O    ALA E  13      -5.553  22.428  -2.548  1.00 75.52 LIG-0.27  OA
BRANCH 35 38
ATOM     38  CA  ALA E  14      -5.820  19.905  -1.377  1.00 94.46 LIG 0.16  C 
ATOM     39  CB  ALA E  14      -5.346  18.474  -1.264  1.00106.12 LIG 0.04  C 
BRANCH 38 40
ATOM     40  C   ALA E  14      -6.889  20.200  -0.331  1.00 99.07 LIG 0.22  C 
ATOM     41 O    ALA E  14      -6.772  21.153   0.439  1.00120.33 LIG-0.29  OA
ENDBRANCH 38 40
ENDBRANCH 35 38
ENDBRANCH 32 34
ENDBRANCH 29 32
ENDBRANCH 26 28
ENDBRANCH 23 26
ENDBRANCH 1 22
TORSDOF 13
ENDMDL
MODEL 222
USER: ADFR SOLUTION from run 20
USER: SCORE 4.869082 LL:  -2.876 LR:  -3.608 RR:   0.000 FEB:   0.270
USER: RMSD 3.934473
USER: SEED 19
USER: STATUS searching
USER: GENES 15
USER: genes 0 Translation |==|  0.68154 0.31943 0.57221
USER: genes 1 Rotation |==|  0.68231 0.60274 0.57836 0.94729
USER: genes 2 Torsion [CB]-CA--N-[C] |==|  0.18553
USER: genes 3 Torsion [N]-C--CA-[N] |==|  0.11585
USER: genes 4 Torsion [C]-CA--N-[C] |==|  0.18328
USER: genes 5 Torsion [N]-C--CA-[N] |==|  0.92265
USER: genes 6 Torsion [C]-CA--N-[C] |==|  0.81993
USER: genes 7 Torsion [N]-C--CA-[N] |==|  0.31093
USER: genes 8 Torsion [N]-CA--C-[N] |==|  0.09691
USER: genes 9 Torsion [C]-N--CA-[CB] |==|  0.84365
USER: genes 10 Torsion [N]-CA--C-[N] |==|  0.55125
USER: genes 11 Torsion [C]-N--CA-[CB] |==|  0.16560
USER: genes 12 Torsion [N]-CA--C-[N] |==|  0.08945
USER: genes 13 Torsion [C]-N--CA-[C] |==|  0.56598
USER: genes 14 Torsion [N]-CA--C-[O] |==|  0.99339
ROOT
ATOM      1  CA  ALA E  11       2.865  20.379   2.494  1.00 85.35 LIG 0.17  C 
ATOM      2  CB  ALA E  11       2.586  19.666   3.819  1.00 80.46 LIG 0.04  C 
ENDROOT
BRANCH 1 3
ATOM      3  N   ALA E  11       3.357  21.729   2.744  1.00 87.15 LIG-0.35  N 
ATOM      4  C   ALA E  10       4.547  21.918   3.320  1.00 62.15 LIG 0.24  C 
ATOM      5 O    ALA E  10       5.356  21.003   3.477  1.00 65.72 LIG-0.27  OA
ATOM      6 H    ALA E  11       2.829  22.361   2.495  1.00 87.15 LIG 0.16  HD
BRANCH 4 7
ATOM      7  CA  ALA E  10       4.887  23.330   3.787  1.00 66.45 LIG 0.17  C 
ATOM      8  CB  ALA E  10       6.075  23.300   4.747  1.00 58.63 LIG 0.04  C 
BRANCH 7 9
ATOM      9  N   ALA E  10       3.752  23.979   4.426  1.00 75.43 LIG-0.35  N 
ATOM     10  C   ALA E   9       3.232  23.562   5.578  1.00 82.21 LIG 0.24  C 
ATOM     11 O    ALA E   9       3.641  22.569   6.190  1.00 73.75 LIG-0.27  OA
ATOM     12 H    ALA E  10       3.450  24.657   3.991  1.00 75.43 LIG 0.16  HD
BRANCH 10 13
ATOM     13  CA  ALA E   9       2.055  24.367   6.112  1.00 87.65 LIG 0.17  C 
ATOM     14  CB  ALA E   9       0.727  23.748   5.684  1.00 72.21 LIG 0.04  C 
BRANCH 13 15
ATOM     15  N   ALA E   9       2.189  25.734   5.622  1.00 84.24 LIG-0.35  N 
ATOM     16 H    ALA E   9       1.562  25.978   5.086  1.00 84.24 LIG 0.16  HD
ATOM     17  C   ALA E   8       3.194  26.520   5.980  1.00 61.40 LIG 0.26  C 
ATOM     18 O    ALA E   8       4.030  26.189   6.819  1.00 66.21 LIG-0.27  OA
BRANCH 17 19
ATOM     19  CA  ALA E   8       3.250  27.892   5.315  1.00 67.03 LIG 0.40  C 
ATOM     20  N   ALA E   8       2.977  28.971   6.310  1.00 60.26 LIG 0.61  N 
ATOM     21  CB  ALA E   8       4.604  28.112   4.650  1.00 64.64 LIG 0.06  C 
ENDBRANCH 17 19
ENDBRANCH 13 15
ENDBRANCH 10 13
ENDBRANCH 7 9
ENDBRANCH 4 7
ENDBRANCH 1 3
BRANCH 1 22
ATOM     22  C   ALA E  11       1.611  20.393   1.628  1.00 81.78 LIG 0.24  C 
ATOM     23  N   ALA E  12       1.525  21.330   0.685  1.00 82.91 LIG-0.35  N 
ATOM     24 H    ALA E  12       2.168  21.854   0.456  1.00 82.91 LIG 0.16  HD
ATOM     25 O    ALA E  11       0.708  19.568   1.814  1.00 89.30 LIG-0.27  OA
BRANCH 23 26
ATOM     26  CA  ALA E  12       0.279  21.524  -0.044  1.00 61.10 LIG 0.17  C 
ATOM     27  CB  ALA E  12      -0.169  20.218  -0.716  1.00 65.27 LIG 0.04  C 
BRANCH 26 28
ATOM     28  C   ALA E  12      -0.806  22.044   0.885  1.00 54.59 LIG 0.24  C 
ATOM     29  N   ALA E  13      -2.050  21.892   0.431  1.00 64.78 LIG-0.35  N 
ATOM     30 H    ALA E  13      -2.246  21.477  -0.297  1.00 64.78 LIG 0.16  HD
ATOM     31 O    ALA E  12      -0.533  22.529   1.986  1.00 69.11 LIG-0.27  OA
BRANCH 29 32
ATOM     32  CA  ALA E  13      -3.202  22.424   1.141  1.00 54.23 LIG 0.17  C 
ATOM     33  CB  ALA E  13      -3.074  23.941   1.279  1.00 56.27 LIG 0.04  C 
BRANCH 32 34
ATOM     34  C   ALA E  13      -4.510  22.117   0.436  1.00 65.29 LIG 0.24  C 
ATOM     35  N   ALA E  14      -4.539  20.968  -0.230  1.00 85.74 LIG-0.35  N 
ATOM     36 H    ALA E  14      -3.862  20.443  -0.299  1.00 85.74 LIG 0.16  HD
ATOM     37 O    ALA E  13      -5.486  22.865   0.539  1.00 75.52 LIG-0.27  OA
BRANCH 35 38
ATOM     38  CA  ALA E  14      -5.729  20.489  -0.912  1.00 94.46 LIG 0.16  C 
ATOM     39  CB  ALA E  14      -5.860  21.157  -2.261  1.00106.12 LIG 0.04  C 
BRANCH 38 40
ATOM     40  C   ALA E  14      -5.676  18.974  -1.068  1.00 99.07 LIG 0.22  C 
ATOM     41 O    ALA E  14      -4.697  18.334  -0.682  1.00120.33 LIG-0.29  OA
ENDBRANCH 38 40
ENDBRANCH 35 38
ENDBRANCH 32 34
ENDBRANCH 29 32
ENDBRANCH 26 28
ENDBRANCH 23 26
ENDBRANCH 1 22
TORSDOF 13
ENDMDL
MODEL 223
USER: ADFR SOLUTION from run 1
USER: SCORE 5.047842 LL:  -2.922 LR:  -3.605 RR:   0.000 FEB:   0.273
USER: RMSD 5.575348
USER: SEED 65424
USER: STATUS no improvement in best in 35 clusters for 5 generations
USER: GENES 15
USER: genes 0 Translation |==|  0.65427 0.33453 0.53282
USER: genes 1 Rotation |==|  0.84344 0.79865 0.43051 0.69502
USER: genes 2 Torsion [CB]-CA--N-[C] |==|  0.83505
USER: genes 3 Torsion [N]-C--CA-[N] |==|  0.37310
USER: genes 4 Torsion [C]-CA--N-[C] |==|  0.86490
USER: genes 5 Torsion [N]-C--CA-[N] |==|  0.41247
USER: genes 6 Torsion [C]-CA--N-[C] |==|  0.78158
USER: genes 7 Torsion [N]-C--CA-[N] |==|  0.54872
USER: genes 8 Torsion [N]-CA--C-[N] |==|  0.12409
USER: genes 9 Torsion [C]-N--CA-[CB] |==|  0.50018
USER: genes 10 Torsion [N]-CA--C-[N] |==|  0.43229
USER: genes 11 Torsion [C]-N--CA-[CB] |==|  0.52385
USER: genes 12 Torsion [N]-CA--C-[N] |==|  0.42007
USER: genes 13 Torsion [C]-N--CA-[C] |==|  0.17231
USER: genes 14 Torsion [N]-CA--C-[O] |==|  0.06509
ROOT
ATOM      1  CA  ALA E  11       2.251  20.651   1.785  1.00 85.35 LIG 0.17  C 
ATOM      2  CB  ALA E  11       2.809  19.226   1.797  1.00 80.46 LIG 0.04  C 
ENDROOT
BRANCH 1 3
ATOM      3  N   ALA E  11       3.343  21.618   1.808  1.00 87.15 LIG-0.35  N 
ATOM      4  C   ALA E  10       4.216  21.627   2.819  1.00 62.15 LIG 0.24  C 
ATOM      5 O    ALA E  10       4.271  20.720   3.650  1.00 65.72 LIG-0.27  OA
ATOM      6 H    ALA E  11       3.367  22.156   1.138  1.00 87.15 LIG 0.16  HD
BRANCH 4 7
ATOM      7  CA  ALA E  10       5.168  22.814   2.917  1.00 66.45 LIG 0.17  C 
ATOM      8  CB  ALA E  10       6.559  22.421   2.422  1.00 58.63 LIG 0.04  C 
BRANCH 7 9
ATOM      9  N   ALA E  10       5.255  23.331   4.274  1.00 75.43 LIG-0.35  N 
ATOM     10  C   ALA E   9       4.184  23.598   5.019  1.00 82.21 LIG 0.24  C 
ATOM     11 O    ALA E   9       3.023  23.463   4.616  1.00 73.75 LIG-0.27  OA
ATOM     12 H    ALA E  10       6.061  23.449   4.549  1.00 75.43 LIG 0.16  HD
BRANCH 10 13
ATOM     13  CA  ALA E   9       4.458  24.120   6.423  1.00 87.65 LIG 0.17  C 
ATOM     14  CB  ALA E   9       4.591  22.971   7.419  1.00 72.21 LIG 0.04  C 
BRANCH 13 15
ATOM     15  N   ALA E   9       3.370  25.019   6.787  1.00 84.24 LIG-0.35  N 
ATOM     16 H    ALA E   9       2.784  24.667   7.309  1.00 84.24 LIG 0.16  HD
ATOM     17  C   ALA E   8       3.303  26.266   6.344  1.00 61.40 LIG 0.26  C 
ATOM     18 O    ALA E   8       4.196  26.783   5.675  1.00 66.21 LIG-0.27  OA
BRANCH 17 19
ATOM     19  CA  ALA E   8       2.059  27.057   6.736  1.00 67.03 LIG 0.40  C 
ATOM     20  N   ALA E   8       1.896  28.254   5.857  1.00 60.26 LIG 0.61  N 
ATOM     21  CB  ALA E   8       0.817  26.175   6.667  1.00 64.64 LIG 0.06  C 
ENDBRANCH 17 19
ENDBRANCH 13 15
ENDBRANCH 10 13
ENDBRANCH 7 9
ENDBRANCH 4 7
ENDBRANCH 1 3
BRANCH 1 22
ATOM     22  C   ALA E  11       1.299  20.854   2.957  1.00 81.78 LIG 0.24  C 
ATOM     23  N   ALA E  12       0.931  22.102   3.240  1.00 82.91 LIG-0.35  N 
ATOM     24 H    ALA E  12       1.100  22.787   2.747  1.00 82.91 LIG 0.16  HD
ATOM     25 O    ALA E  11       0.902  19.889   3.620  1.00 89.30 LIG-0.27  OA
BRANCH 23 26
ATOM     26  CA  ALA E  12       0.185  22.388   4.458  1.00 61.10 LIG 0.17  C 
ATOM     27  CB  ALA E  12      -0.127  23.888   4.567  1.00 65.27 LIG 0.04  C 
BRANCH 26 28
ATOM     28  C   ALA E  12      -1.098  21.574   4.501  1.00 54.59 LIG 0.24  C 
ATOM     29  N   ALA E  13      -1.582  21.358   5.724  1.00 64.78 LIG-0.35  N 
ATOM     30 H    ALA E  13      -1.245  21.699   6.439  1.00 64.78 LIG 0.16  HD
ATOM     31 O    ALA E  12      -1.650  21.188   3.467  1.00 69.11 LIG-0.27  OA
BRANCH 29 32
ATOM     32  CA  ALA E  13      -2.742  20.512   5.957  1.00 54.23 LIG 0.17  C 
ATOM     33  CB  ALA E  13      -3.186  20.625   7.416  1.00 56.27 LIG 0.04  C 
BRANCH 32 34
ATOM     34  C   ALA E  13      -3.917  20.884   5.070  1.00 65.29 LIG 0.24  C 
ATOM     35  N   ALA E  14      -4.740  19.886   4.771  1.00 85.74 LIG-0.35  N 
ATOM     36 H    ALA E  14      -4.611  19.074   5.022  1.00 85.74 LIG 0.16  HD
ATOM     37 O    ALA E  13      -4.109  22.050   4.715  1.00 75.52 LIG-0.27  OA
BRANCH 35 38
ATOM     38  CA  ALA E  14      -5.945  20.075   3.984  1.00 94.46 LIG 0.16  C 
ATOM     39  CB  ALA E  14      -6.872  21.047   4.679  1.00106.12 LIG 0.04  C 
BRANCH 38 40
ATOM     40  C   ALA E  14      -5.594  20.576   2.588  1.00 99.07 LIG 0.22  C 
ATOM     41 O    ALA E  14      -4.480  20.368   2.106  1.00120.33 LIG-0.29  OA
ENDBRANCH 38 40
ENDBRANCH 35 38
ENDBRANCH 32 34
ENDBRANCH 29 32
ENDBRANCH 26 28
ENDBRANCH 23 26
ENDBRANCH 1 22
TORSDOF 13
ENDMDL
MODEL 224
USER: ADFR SOLUTION from run 158
USER: SCORE 4.991645 LL:  -2.538 LR:  -3.603 RR:   0.000 FEB:   0.275
USER: RMSD 3.910959
USER: SEED 157
USER: STATUS no improvement in best in 109 clusters for 5 generations
USER: GENES 15
USER: genes 0 Translation |==|  0.62395 0.41540 0.56141
USER: genes 1 Rotation |==|  0.86806 0.79151 0.56088 0.66077
USER: genes 2 Torsion [CB]-CA--N-[C] |==|  0.84648
USER: genes 3 Torsion [N]-C--CA-[N] |==|  0.08953
USER: genes 4 Torsion [C]-CA--N-[C] |==|  0.55172
USER: genes 5 Torsion [N]-C--CA-[N] |==|  0.40473
USER: genes 6 Torsion [C]-CA--N-[C] |==|  0.80150
USER: genes 7 Torsion [N]-C--CA-[N] |==|  0.30076
USER: genes 8 Torsion [N]-CA--C-[N] |==|  0.36238
USER: genes 9 Torsion [C]-N--CA-[CB] |==|  0.13560
USER: genes 10 Torsion [N]-CA--C-[N] |==|  0.11009
USER: genes 11 Torsion [C]-N--CA-[CB] |==|  0.86517
USER: genes 12 Torsion [N]-CA--C-[N] |==|  0.93709
USER: genes 13 Torsion [C]-N--CA-[C] |==|  0.53279
USER: genes 14 Torsion [N]-CA--C-[O] |==|  0.00415
ROOT
ATOM      1  CA  ALA E  11       1.569  22.106   2.299  1.00 85.35 LIG 0.17  C 
ATOM      2  CB  ALA E  11       2.335  20.842   1.905  1.00 80.46 LIG 0.04  C 
ENDROOT
BRANCH 1 3
ATOM      3  N   ALA E  11       2.436  23.003   3.056  1.00 87.15 LIG-0.35  N 
ATOM      4  C   ALA E  10       3.059  22.572   4.156  1.00 62.15 LIG 0.24  C 
ATOM      5 O    ALA E  10       3.101  21.381   4.465  1.00 65.72 LIG-0.27  OA
ATOM      6 H    ALA E  11       2.503  23.799   2.737  1.00 87.15 LIG 0.16  HD
BRANCH 4 7
ATOM      7  CA  ALA E  10       3.736  23.617   5.036  1.00 66.45 LIG 0.17  C 
ATOM      8  CB  ALA E  10       3.838  23.113   6.475  1.00 58.63 LIG 0.04  C 
BRANCH 7 9
ATOM      9  N   ALA E  10       3.032  24.890   5.009  1.00 75.43 LIG-0.35  N 
ATOM     10  C   ALA E   9       3.592  26.037   5.386  1.00 82.21 LIG 0.24  C 
ATOM     11 O    ALA E   9       4.746  26.120   5.823  1.00 73.75 LIG-0.27  OA
ATOM     12 H    ALA E  10       2.221  24.832   4.728  1.00 75.43 LIG 0.16  HD
BRANCH 10 13
ATOM     13  CA  ALA E   9       2.715  27.277   5.281  1.00 87.65 LIG 0.17  C 
ATOM     14  CB  ALA E   9       2.895  27.962   3.928  1.00 72.21 LIG 0.04  C 
BRANCH 13 15
ATOM     15  N   ALA E   9       3.065  28.168   6.380  1.00 84.24 LIG-0.35  N 
ATOM     16 H    ALA E   9       3.493  28.874   6.137  1.00 84.24 LIG 0.16  HD
ATOM     17  C   ALA E   8       2.745  27.900   7.638  1.00 61.40 LIG 0.26  C 
ATOM     18 O    ALA E   8       2.053  26.935   7.956  1.00 66.21 LIG-0.27  OA
BRANCH 17 19
ATOM     19  CA  ALA E   8       3.258  28.880   8.689  1.00 67.03 LIG 0.40  C 
ATOM     20  N   ALA E   8       2.136  29.698   9.238  1.00 60.26 LIG 0.61  N 
ATOM     21  CB  ALA E   8       3.973  28.137   9.813  1.00 64.64 LIG 0.06  C 
ENDBRANCH 17 19
ENDBRANCH 13 15
ENDBRANCH 10 13
ENDBRANCH 7 9
ENDBRANCH 4 7
ENDBRANCH 1 3
BRANCH 1 22
ATOM     22  C   ALA E  11       0.319  21.740   3.090  1.00 81.78 LIG 0.24  C 
ATOM     23  N   ALA E  12      -0.856  21.867   2.476  1.00 82.91 LIG-0.35  N 
ATOM     24 H    ALA E  12      -0.955  22.033   1.638  1.00 82.91 LIG 0.16  HD
ATOM     25 O    ALA E  11       0.406  21.352   4.261  1.00 89.30 LIG-0.27  OA
BRANCH 23 26
ATOM     26  CA  ALA E  12      -2.095  21.723   3.228  1.00 61.10 LIG 0.17  C 
ATOM     27  CB  ALA E  12      -2.057  22.571   4.508  1.00 65.27 LIG 0.04  C 
BRANCH 26 28
ATOM     28  C   ALA E  12      -3.288  22.111   2.369  1.00 54.59 LIG 0.24  C 
ATOM     29  N   ALA E  13      -3.216  21.711   1.099  1.00 64.78 LIG-0.35  N 
ATOM     30 H    ALA E  13      -2.584  21.216   0.789  1.00 64.78 LIG 0.16  HD
ATOM     31 O    ALA E  12      -4.253  22.716   2.843  1.00 69.11 LIG-0.27  OA
BRANCH 29 32
ATOM     32  CA  ALA E  13      -4.218  22.085   0.115  1.00 54.23 LIG 0.17  C 
ATOM     33  CB  ALA E  13      -5.619  21.828   0.672  1.00 56.27 LIG 0.04  C 
BRANCH 32 34
ATOM     34  C   ALA E  13      -4.123  23.547  -0.283  1.00 65.29 LIG 0.24  C 
ATOM     35  N   ALA E  14      -3.525  24.337   0.601  1.00 85.74 LIG-0.35  N 
ATOM     36 H    ALA E  14      -3.240  24.064   1.365  1.00 85.74 LIG 0.16  HD
ATOM     37 O    ALA E  13      -4.523  23.941  -1.381  1.00 75.52 LIG-0.27  OA
BRANCH 35 38
ATOM     38  CA  ALA E  14      -3.294  25.749   0.357  1.00 94.46 LIG 0.16  C 
ATOM     39  CB  ALA E  14      -4.606  26.500   0.366  1.00106.12 LIG 0.04  C 
BRANCH 38 40
ATOM     40  C   ALA E  14      -2.344  26.320   1.405  1.00 99.07 LIG 0.22  C 
ATOM     41 O    ALA E  14      -1.865  25.599   2.280  1.00120.33 LIG-0.29  OA
ENDBRANCH 38 40
ENDBRANCH 35 38
ENDBRANCH 32 34
ENDBRANCH 29 32
ENDBRANCH 26 28
ENDBRANCH 23 26
ENDBRANCH 1 22
TORSDOF 13
ENDMDL
MODEL 225
USER: ADFR SOLUTION from run 166
USER: SCORE 4.278294 LL:  -2.736 LR:  -3.603 RR:   0.000 FEB:   0.274
USER: RMSD 3.704060
USER: SEED 165
USER: STATUS no improvement in best in 98 clusters for 5 generations
USER: GENES 15
USER: genes 0 Translation |==|  0.65479 0.40236 0.56538
USER: genes 1 Rotation |==|  0.76148 0.62660 0.43900 0.90235
USER: genes 2 Torsion [CB]-CA--N-[C] |==|  0.16763
USER: genes 3 Torsion [N]-C--CA-[N] |==|  0.17047
USER: genes 4 Torsion [C]-CA--N-[C] |==|  0.17044
USER: genes 5 Torsion [N]-C--CA-[N] |==|  0.22284
USER: genes 6 Torsion [C]-CA--N-[C] |==|  0.72240
USER: genes 7 Torsion [N]-C--CA-[N] |==|  0.45935
USER: genes 8 Torsion [N]-CA--C-[N] |==|  0.52606
USER: genes 9 Torsion [C]-N--CA-[CB] |==|  0.84397
USER: genes 10 Torsion [N]-CA--C-[N] |==|  0.41857
USER: genes 11 Torsion [C]-N--CA-[CB] |==|  0.20314
USER: genes 12 Torsion [N]-CA--C-[N] |==|  0.09401
USER: genes 13 Torsion [C]-N--CA-[C] |==|  0.76090
USER: genes 14 Torsion [N]-CA--C-[O] |==|  0.98389
ROOT
ATOM      1  CA  ALA E  11       2.263  21.872   2.371  1.00 85.35 LIG 0.17  C 
ATOM      2  CB  ALA E  11       2.069  20.987   3.604  1.00 80.46 LIG 0.04  C 
ENDROOT
BRANCH 1 3
ATOM      3  N   ALA E  11       3.427  22.732   2.549  1.00 87.15 LIG-0.35  N 
ATOM      4  C   ALA E  10       4.638  22.201   2.734  1.00 62.15 LIG 0.24  C 
ATOM      5 O    ALA E  10       4.865  21.002   2.563  1.00 65.72 LIG-0.27  OA
ATOM      6 H    ALA E  11       3.263  23.576   2.523  1.00 87.15 LIG 0.16  HD
BRANCH 4 7
ATOM      7  CA  ALA E  10       5.759  23.138   3.169  1.00 66.45 LIG 0.17  C 
ATOM      8  CB  ALA E  10       7.086  22.383   3.237  1.00 58.63 LIG 0.04  C 
BRANCH 7 9
ATOM      9  N   ALA E  10       5.481  23.761   4.454  1.00 75.43 LIG-0.35  N 
ATOM     10  C   ALA E   9       5.321  23.065   5.578  1.00 82.21 LIG 0.24  C 
ATOM     11 O    ALA E   9       5.361  21.831   5.626  1.00 73.75 LIG-0.27  OA
ATOM     12 H    ALA E  10       5.428  24.619   4.420  1.00 75.43 LIG 0.16  HD
BRANCH 10 13
ATOM     13  CA  ALA E   9       5.048  23.879   6.836  1.00 87.65 LIG 0.17  C 
ATOM     14  CB  ALA E   9       5.429  23.094   8.089  1.00 72.21 LIG 0.04  C 
BRANCH 13 15
ATOM     15  N   ALA E   9       3.636  24.238   6.840  1.00 84.24 LIG-0.35  N 
ATOM     16 H    ALA E   9       3.114  23.609   7.108  1.00 84.24 LIG 0.16  HD
ATOM     17  C   ALA E   8       3.208  25.434   6.460  1.00 61.40 LIG 0.26  C 
ATOM     18 O    ALA E   8       3.973  26.351   6.169  1.00 66.21 LIG-0.27  OA
BRANCH 17 19
ATOM     19  CA  ALA E   8       1.696  25.633   6.431  1.00 67.03 LIG 0.40  C 
ATOM     20  N   ALA E   8       1.357  27.084   6.337  1.00 60.26 LIG 0.61  N 
ATOM     21  CB  ALA E   8       1.075  24.866   5.269  1.00 64.64 LIG 0.06  C 
ENDBRANCH 17 19
ENDBRANCH 13 15
ENDBRANCH 10 13
ENDBRANCH 7 9
ENDBRANCH 4 7
ENDBRANCH 1 3
BRANCH 1 22
ATOM     22  C   ALA E  11       1.003  22.685   2.101  1.00 81.78 LIG 0.24  C 
ATOM     23  N   ALA E  12      -0.161  22.037   2.110  1.00 82.91 LIG-0.35  N 
ATOM     24 H    ALA E  12      -0.265  21.222   2.364  1.00 82.91 LIG 0.16  HD
ATOM     25 O    ALA E  11       1.074  23.898   1.872  1.00 89.30 LIG-0.27  OA
BRANCH 23 26
ATOM     26  CA  ALA E  12      -1.377  22.708   1.670  1.00 61.10 LIG 0.17  C 
ATOM     27  CB  ALA E  12      -1.610  23.995   2.475  1.00 65.27 LIG 0.04  C 
BRANCH 26 28
ATOM     28  C   ALA E  12      -1.307  23.016   0.183  1.00 54.59 LIG 0.24  C 
ATOM     29  N   ALA E  13      -2.487  23.043  -0.437  1.00 64.78 LIG-0.35  N 
ATOM     30 H    ALA E  13      -3.241  22.959  -0.033  1.00 64.78 LIG 0.16  HD
ATOM     31 O    ALA E  12      -0.233  23.257  -0.375  1.00 69.11 LIG-0.27  OA
BRANCH 29 32
ATOM     32  CA  ALA E  13      -2.598  23.219  -1.877  1.00 54.23 LIG 0.17  C 
ATOM     33  CB  ALA E  13      -2.163  21.941  -2.594  1.00 56.27 LIG 0.04  C 
BRANCH 32 34
ATOM     34  C   ALA E  13      -4.013  23.553  -2.312  1.00 65.29 LIG 0.24  C 
ATOM     35  N   ALA E  14      -4.711  24.289  -1.454  1.00 85.74 LIG-0.35  N 
ATOM     36 H    ALA E  14      -4.411  24.536  -0.688  1.00 85.74 LIG 0.16  HD
ATOM     37 O    ALA E  13      -4.444  23.208  -3.415  1.00 75.52 LIG-0.27  OA
BRANCH 35 38
ATOM     38  CA  ALA E  14      -6.059  24.750  -1.737  1.00 94.46 LIG 0.16  C 
ATOM     39  CB  ALA E  14      -6.830  24.922  -0.448  1.00106.12 LIG 0.04  C 
BRANCH 38 40
ATOM     40  C   ALA E  14      -6.018  26.061  -2.515  1.00 99.07 LIG 0.22  C 
ATOM     41 O    ALA E  14      -4.950  26.636  -2.726  1.00120.33 LIG-0.29  OA
ENDBRANCH 38 40
ENDBRANCH 35 38
ENDBRANCH 32 34
ENDBRANCH 29 32
ENDBRANCH 26 28
ENDBRANCH 23 26
ENDBRANCH 1 22
TORSDOF 13
ENDMDL
MODEL 226
USER: ADFR SOLUTION from run 146
USER: SCORE 4.481110 LL:  -2.303 LR:  -3.601 RR:   0.000 FEB:   0.277
USER: RMSD 5.547189
USER: SEED 145
USER: STATUS no improvement in best in 70 clusters for 5 generations
USER: GENES 15
USER: genes 0 Translation |==|  0.50595 0.45570 0.72896
USER: genes 1 Rotation |==|  0.51247 0.39082 0.47322 0.98704
USER: genes 2 Torsion [CB]-CA--N-[C] |==|  0.48651
USER: genes 3 Torsion [N]-C--CA-[N] |==|  0.45081
USER: genes 4 Torsion [C]-CA--N-[C] |==|  0.76929
USER: genes 5 Torsion [N]-C--CA-[N] |==|  0.05813
USER: genes 6 Torsion [C]-CA--N-[C] |==|  0.72761
USER: genes 7 Torsion [N]-C--CA-[N] |==|  0.87044
USER: genes 8 Torsion [N]-CA--C-[N] |==|  0.51111
USER: genes 9 Torsion [C]-N--CA-[CB] |==|  0.19384
USER: genes 10 Torsion [N]-CA--C-[N] |==|  0.15871
USER: genes 11 Torsion [C]-N--CA-[CB] |==|  0.84986
USER: genes 12 Torsion [N]-CA--C-[N] |==|  0.39095
USER: genes 13 Torsion [C]-N--CA-[C] |==|  0.75662
USER: genes 14 Torsion [N]-CA--C-[O] |==|  0.98440
ROOT
ATOM      1  CA  ALA E  11      -1.086  22.832   5.315  1.00 85.35 LIG 0.17  C 
ATOM      2  CB  ALA E  11      -2.324  23.399   6.012  1.00 80.46 LIG 0.04  C 
ENDROOT
BRANCH 1 3
ATOM      3  N   ALA E  11       0.028  23.765   5.433  1.00 87.15 LIG-0.35  N 
ATOM      4  C   ALA E  10       1.240  23.432   4.980  1.00 62.15 LIG 0.24  C 
ATOM      5 O    ALA E  10       1.430  22.440   4.277  1.00 65.72 LIG-0.27  OA
ATOM      6 H    ALA E  11      -0.164  24.516   5.806  1.00 87.15 LIG 0.16  HD
BRANCH 4 7
ATOM      7  CA  ALA E  10       2.407  24.335   5.363  1.00 66.45 LIG 0.17  C 
ATOM      8  CB  ALA E  10       2.368  25.627   4.547  1.00 58.63 LIG 0.04  C 
BRANCH 7 9
ATOM      9  N   ALA E  10       3.690  23.674   5.177  1.00 75.43 LIG-0.35  N 
ATOM     10  C   ALA E   9       4.221  22.853   6.081  1.00 82.21 LIG 0.24  C 
ATOM     11 O    ALA E   9       3.690  22.604   7.169  1.00 73.75 LIG-0.27  OA
ATOM     12 H    ALA E  10       4.073  23.864   4.430  1.00 75.43 LIG 0.16  HD
BRANCH 10 13
ATOM     13  CA  ALA E   9       5.565  22.236   5.717  1.00 87.65 LIG 0.17  C 
ATOM     14  CB  ALA E   9       6.462  22.113   6.947  1.00 72.21 LIG 0.04  C 
BRANCH 13 15
ATOM     15  N   ALA E   9       6.178  23.071   4.692  1.00 84.24 LIG-0.35  N 
ATOM     16 H    ALA E   9       6.583  23.765   4.999  1.00 84.24 LIG 0.16  HD
ATOM     17  C   ALA E   8       6.109  22.773   3.402  1.00 61.40 LIG 0.26  C 
ATOM     18 O    ALA E   8       5.608  21.730   2.987  1.00 66.21 LIG-0.27  OA
BRANCH 17 19
ATOM     19  CA  ALA E   8       6.720  23.788   2.440  1.00 67.03 LIG 0.40  C 
ATOM     20  N   ALA E   8       6.282  25.173   2.788  1.00 60.26 LIG 0.61  N 
ATOM     21  CB  ALA E   8       8.241  23.693   2.453  1.00 64.64 LIG 0.06  C 
ENDBRANCH 17 19
ENDBRANCH 13 15
ENDBRANCH 10 13
ENDBRANCH 7 9
ENDBRANCH 4 7
ENDBRANCH 1 3
BRANCH 1 22
ATOM     22  C   ALA E  11      -1.399  22.516   3.858  1.00 81.78 LIG 0.24  C 
ATOM     23  N   ALA E  12      -2.450  21.738   3.609  1.00 82.91 LIG-0.35  N 
ATOM     24 H    ALA E  12      -3.027  21.491   4.197  1.00 82.91 LIG 0.16  HD
ATOM     25 O    ALA E  11      -0.687  22.964   2.950  1.00 89.30 LIG-0.27  OA
BRANCH 23 26
ATOM     26  CA  ALA E  12      -2.690  21.239   2.262  1.00 61.10 LIG 0.17  C 
ATOM     27  CB  ALA E  12      -1.631  20.198   1.869  1.00 65.27 LIG 0.04  C 
BRANCH 26 28
ATOM     28  C   ALA E  12      -4.085  20.643   2.154  1.00 54.59 LIG 0.24  C 
ATOM     29  N   ALA E  13      -5.075  21.477   2.475  1.00 64.78 LIG-0.35  N 
ATOM     30 H    ALA E  13      -4.957  22.307   2.667  1.00 64.78 LIG 0.16  HD
ATOM     31 O    ALA E  12      -4.263  19.488   1.761  1.00 69.11 LIG-0.27  OA
BRANCH 29 32
ATOM     32  CA  ALA E  13      -6.462  21.044   2.529  1.00 54.23 LIG 0.17  C 
ATOM     33  CB  ALA E  13      -6.855  20.386   1.206  1.00 56.27 LIG 0.04  C 
BRANCH 32 34
ATOM     34  C   ALA E  13      -6.716  20.052   3.650  1.00 65.29 LIG 0.24  C 
ATOM     35  N   ALA E  14      -7.867  20.206   4.294  1.00 85.74 LIG-0.35  N 
ATOM     36 H    ALA E  14      -8.422  20.840   4.126  1.00 85.74 LIG 0.16  HD
ATOM     37 O    ALA E  13      -5.924  19.136   3.887  1.00 75.52 LIG-0.27  OA
BRANCH 35 38
ATOM     38  CA  ALA E  14      -8.297  19.309   5.351  1.00 94.46 LIG 0.16  C 
ATOM     39  CB  ALA E  14      -9.161  20.053   6.344  1.00106.12 LIG 0.04  C 
BRANCH 38 40
ATOM     40  C   ALA E  14      -9.056  18.124   4.764  1.00 99.07 LIG 0.22  C 
ATOM     41 O    ALA E  14      -9.319  18.076   3.563  1.00120.33 LIG-0.29  OA
ENDBRANCH 38 40
ENDBRANCH 35 38
ENDBRANCH 32 34
ENDBRANCH 29 32
ENDBRANCH 26 28
ENDBRANCH 23 26
ENDBRANCH 1 22
TORSDOF 13
ENDMDL
MODEL 227
USER: ADFR SOLUTION from run 156
USER: SCORE 4.477961 LL:  -2.731 LR:  -3.601 RR:   0.000 FEB:   0.277
USER: RMSD 5.294543
USER: SEED 155
USER: STATUS no improvement in best in 72 clusters for 5 generations
USER: GENES 15
USER: genes 0 Translation |==|  0.53748 0.51500 0.88865
USER: genes 1 Rotation |==|  0.39856 0.48916 0.47086 0.98861
USER: genes 2 Torsion [CB]-CA--N-[C] |==|  0.82676
USER: genes 3 Torsion [N]-C--CA-[N] |==|  0.83082
USER: genes 4 Torsion [C]-CA--N-[C] |==|  0.83271
USER: genes 5 Torsion [N]-C--CA-[N] |==|  0.35996
USER: genes 6 Torsion [C]-CA--N-[C] |==|  0.65556
USER: genes 7 Torsion [N]-C--CA-[N] |==|  0.45753
USER: genes 8 Torsion [N]-CA--C-[N] |==|  0.79619
USER: genes 9 Torsion [C]-N--CA-[CB] |==|  0.18574
USER: genes 10 Torsion [N]-CA--C-[N] |==|  0.10949
USER: genes 11 Torsion [C]-N--CA-[CB] |==|  0.51667
USER: genes 12 Torsion [N]-CA--C-[N] |==|  0.44480
USER: genes 13 Torsion [C]-N--CA-[C] |==|  0.77001
USER: genes 14 Torsion [N]-CA--C-[O] |==|  0.97672
ROOT
ATOM      1  CA  ALA E  11      -0.377  23.899   8.190  1.00 85.35 LIG 0.17  C 
ATOM      2  CB  ALA E  11      -1.214  24.902   8.985  1.00 80.46 LIG 0.04  C 
ENDROOT
BRANCH 1 3
ATOM      3  N   ALA E  11       0.695  24.590   7.481  1.00 87.15 LIG-0.35  N 
ATOM      4  C   ALA E  10       0.410  25.502   6.548  1.00 62.15 LIG 0.24  C 
ATOM      5 O    ALA E  10      -0.728  25.946   6.386  1.00 65.72 LIG-0.27  OA
ATOM      6 H    ALA E  11       1.491  24.362   7.714  1.00 87.15 LIG 0.16  HD
BRANCH 4 7
ATOM      7  CA  ALA E  10       1.556  25.994   5.671  1.00 66.45 LIG 0.17  C 
ATOM      8  CB  ALA E  10       2.146  24.834   4.869  1.00 58.63 LIG 0.04  C 
BRANCH 7 9
ATOM      9  N   ALA E  10       2.602  26.636   6.452  1.00 75.43 LIG-0.35  N 
ATOM     10  C   ALA E   9       2.389  27.715   7.201  1.00 82.21 LIG 0.24  C 
ATOM     11 O    ALA E   9       1.296  28.289   7.275  1.00 73.75 LIG-0.27  OA
ATOM     12 H    ALA E  10       3.370  26.254   6.384  1.00 75.43 LIG 0.16  HD
BRANCH 10 13
ATOM     13  CA  ALA E   9       3.594  28.249   7.964  1.00 87.65 LIG 0.17  C 
ATOM     14  CB  ALA E   9       3.463  27.970   9.459  1.00 72.21 LIG 0.04  C 
BRANCH 13 15
ATOM     15  N   ALA E   9       3.698  29.678   7.695  1.00 84.24 LIG-0.35  N 
ATOM     16 H    ALA E   9       2.987  30.124   7.886  1.00 84.24 LIG 0.16  HD
ATOM     17  C   ALA E   8       4.797  30.227   7.198  1.00 61.40 LIG 0.26  C 
ATOM     18 O    ALA E   8       5.834  29.592   7.019  1.00 66.21 LIG-0.27  OA
BRANCH 17 19
ATOM     19  CA  ALA E   8       4.726  31.718   6.884  1.00 67.03 LIG 0.40  C 
ATOM     20  N   ALA E   8       6.095  32.283   6.691  1.00 60.26 LIG 0.61  N 
ATOM     21  CB  ALA E   8       3.870  31.967   5.648  1.00 64.64 LIG 0.06  C 
ENDBRANCH 17 19
ENDBRANCH 13 15
ENDBRANCH 10 13
ENDBRANCH 7 9
ENDBRANCH 4 7
ENDBRANCH 1 3
BRANCH 1 22
ATOM     22  C   ALA E  11      -1.264  23.113   7.232  1.00 81.78 LIG 0.24  C 
ATOM     23  N   ALA E  12      -2.100  23.806   6.460  1.00 82.91 LIG-0.35  N 
ATOM     24 H    ALA E  12      -2.098  24.663   6.382  1.00 82.91 LIG 0.16  HD
ATOM     25 O    ALA E  11      -1.209  21.878   7.192  1.00 89.30 LIG-0.27  OA
BRANCH 23 26
ATOM     26  CA  ALA E  12      -3.108  23.116   5.667  1.00 61.10 LIG 0.17  C 
ATOM     27  CB  ALA E  12      -4.156  22.454   6.576  1.00 65.27 LIG 0.04  C 
BRANCH 26 28
ATOM     28  C   ALA E  12      -3.777  24.078   4.699  1.00 54.59 LIG 0.24  C 
ATOM     29  N   ALA E  13      -2.954  24.962   4.133  1.00 64.78 LIG-0.35  N 
ATOM     30 H    ALA E  13      -2.101  24.960   4.244  1.00 64.78 LIG 0.16  HD
ATOM     31 O    ALA E  12      -4.982  24.002   4.445  1.00 69.11 LIG-0.27  OA
BRANCH 29 32
ATOM     32  CA  ALA E  13      -3.440  26.020   3.263  1.00 54.23 LIG 0.17  C 
ATOM     33  CB  ALA E  13      -2.260  26.776   2.650  1.00 56.27 LIG 0.04  C 
BRANCH 32 34
ATOM     34  C   ALA E  13      -4.306  25.491   2.134  1.00 65.29 LIG 0.24  C 
ATOM     35  N   ALA E  14      -5.104  26.387   1.563  1.00 85.74 LIG-0.35  N 
ATOM     36 H    ALA E  14      -5.165  27.202   1.826  1.00 85.74 LIG 0.16  HD
ATOM     37 O    ALA E  13      -4.215  24.323   1.749  1.00 75.52 LIG-0.27  OA
BRANCH 35 38
ATOM     38  CA  ALA E  14      -5.954  26.067   0.430  1.00 94.46 LIG 0.16  C 
ATOM     39  CB  ALA E  14      -7.137  27.007   0.386  1.00106.12 LIG 0.04  C 
BRANCH 38 40
ATOM     40  C   ALA E  14      -5.159  26.146  -0.868  1.00 99.07 LIG 0.22  C 
ATOM     41 O    ALA E  14      -4.012  26.593  -0.879  1.00120.33 LIG-0.29  OA
ENDBRANCH 38 40
ENDBRANCH 35 38
ENDBRANCH 32 34
ENDBRANCH 29 32
ENDBRANCH 26 28
ENDBRANCH 23 26
ENDBRANCH 1 22
TORSDOF 13
ENDMDL
MODEL 228
USER: ADFR SOLUTION from run 162
USER: SCORE 5.188408 LL:  -3.059 LR:  -3.589 RR:   0.000 FEB:   0.289
USER: RMSD 5.030410
USER: SEED 161
USER: STATUS no improvement in best in 72 clusters for 5 generations
USER: GENES 15
USER: genes 0 Translation |==|  0.66064 0.36693 0.57265
USER: genes 1 Rotation |==|  0.63827 0.44954 0.48847 0.97770
USER: genes 2 Torsion [CB]-CA--N-[C] |==|  0.23020
USER: genes 3 Torsion [N]-C--CA-[N] |==|  0.12433
USER: genes 4 Torsion [C]-CA--N-[C] |==|  0.18882
USER: genes 5 Torsion [N]-C--CA-[N] |==|  0.04393
USER: genes 6 Torsion [C]-CA--N-[C] |==|  0.75071
USER: genes 7 Torsion [N]-C--CA-[N] |==|  0.50451
USER: genes 8 Torsion [N]-CA--C-[N] |==|  0.05158
USER: genes 9 Torsion [C]-N--CA-[CB] |==|  0.85364
USER: genes 10 Torsion [N]-CA--C-[N] |==|  0.85410
USER: genes 11 Torsion [C]-N--CA-[CB] |==|  0.16629
USER: genes 12 Torsion [N]-CA--C-[N] |==|  0.10161
USER: genes 13 Torsion [C]-N--CA-[C] |==|  0.62150
USER: genes 14 Torsion [N]-CA--C-[O] |==|  0.97736
ROOT
ATOM      1  CA  ALA E  11       2.394  21.234   2.502  1.00 85.35 LIG 0.17  C 
ATOM      2  CB  ALA E  11       1.288  21.144   3.555  1.00 80.46 LIG 0.04  C 
ENDROOT
BRANCH 1 3
ATOM      3  N   ALA E  11       3.387  22.226   2.900  1.00 87.15 LIG-0.35  N 
ATOM      4  C   ALA E  10       4.362  21.901   3.754  1.00 62.15 LIG 0.24  C 
ATOM      5 O    ALA E  10       4.592  20.735   4.078  1.00 65.72 LIG-0.27  OA
ATOM      6 H    ALA E  11       3.287  23.004   2.547  1.00 87.15 LIG 0.16  HD
BRANCH 4 7
ATOM      7  CA  ALA E  10       5.203  23.036   4.327  1.00 66.45 LIG 0.17  C 
ATOM      8  CB  ALA E  10       6.044  22.534   5.500  1.00 58.63 LIG 0.04  C 
BRANCH 7 9
ATOM      9  N   ALA E  10       4.383  24.160   4.754  1.00 75.43 LIG-0.35  N 
ATOM     10  C   ALA E   9       3.550  24.097   5.790  1.00 82.21 LIG 0.24  C 
ATOM     11 O    ALA E   9       3.373  23.074   6.461  1.00 73.75 LIG-0.27  OA
ATOM     12 H    ALA E  10       4.486  24.867   4.275  1.00 75.43 LIG 0.16  HD
BRANCH 10 13
ATOM     13  CA  ALA E   9       2.778  25.371   6.107  1.00 87.65 LIG 0.17  C 
ATOM     14  CB  ALA E   9       1.324  25.059   6.456  1.00 72.21 LIG 0.04  C 
BRANCH 13 15
ATOM     15  N   ALA E   9       2.871  26.251   4.949  1.00 84.24 LIG-0.35  N 
ATOM     16 H    ALA E   9       2.240  26.144   4.374  1.00 84.24 LIG 0.16  HD
ATOM     17  C   ALA E   8       3.850  27.134   4.806  1.00 61.40 LIG 0.26  C 
ATOM     18 O    ALA E   8       4.691  27.339   5.679  1.00 66.21 LIG-0.27  OA
BRANCH 17 19
ATOM     19  CA  ALA E   8       3.866  27.920   3.499  1.00 67.03 LIG 0.40  C 
ATOM     20  N   ALA E   8       5.038  28.846   3.456  1.00 60.26 LIG 0.61  N 
ATOM     21  CB  ALA E   8       3.892  26.975   2.303  1.00 64.64 LIG 0.06  C 
ENDBRANCH 17 19
ENDBRANCH 13 15
ENDBRANCH 10 13
ENDBRANCH 7 9
ENDBRANCH 4 7
ENDBRANCH 1 3
BRANCH 1 22
ATOM     22  C   ALA E  11       1.799  21.557   1.137  1.00 81.78 LIG 0.24  C 
ATOM     23  N   ALA E  12       2.475  22.396   0.354  1.00 82.91 LIG-0.35  N 
ATOM     24 H    ALA E  12       3.271  22.681   0.514  1.00 82.91 LIG 0.16  HD
ATOM     25 O    ALA E  11       0.721  21.061   0.787  1.00 89.30 LIG-0.27  OA
BRANCH 23 26
ATOM     26  CA  ALA E  12       1.873  22.900  -0.873  1.00 61.10 LIG 0.17  C 
ATOM     27  CB  ALA E  12       1.361  21.742  -1.743  1.00 65.27 LIG 0.04  C 
BRANCH 26 28
ATOM     28  C   ALA E  12       0.743  23.866  -0.556  1.00 54.59 LIG 0.24  C 
ATOM     29  N   ALA E  13      -0.176  23.394   0.287  1.00 64.78 LIG-0.35  N 
ATOM     30 H    ALA E  13      -0.116  22.631   0.680  1.00 64.78 LIG 0.16  HD
ATOM     31 O    ALA E  12       0.722  25.007  -1.024  1.00 69.11 LIG-0.27  OA
BRANCH 29 32
ATOM     32  CA  ALA E  13      -1.377  24.143   0.618  1.00 54.23 LIG 0.17  C 
ATOM     33  CB  ALA E  13      -2.191  24.411  -0.648  1.00 56.27 LIG 0.04  C 
BRANCH 32 34
ATOM     34  C   ALA E  13      -2.262  23.410   1.609  1.00 65.29 LIG 0.24  C 
ATOM     35  N   ALA E  14      -1.618  22.720   2.543  1.00 85.74 LIG-0.35  N 
ATOM     36 H    ALA E  14      -0.762  22.653   2.577  1.00 85.74 LIG 0.16  HD
ATOM     37 O    ALA E  13      -3.491  23.511   1.569  1.00 75.52 LIG-0.27  OA
BRANCH 35 38
ATOM     38  CA  ALA E  14      -2.307  22.009   3.606  1.00 94.46 LIG 0.16  C 
ATOM     39  CB  ALA E  14      -2.365  20.532   3.290  1.00106.12 LIG 0.04  C 
BRANCH 38 40
ATOM     40  C   ALA E  14      -1.609  22.245   4.940  1.00 99.07 LIG 0.22  C 
ATOM     41 O    ALA E  14      -0.526  22.828   4.991  1.00120.33 LIG-0.29  OA
ENDBRANCH 38 40
ENDBRANCH 35 38
ENDBRANCH 32 34
ENDBRANCH 29 32
ENDBRANCH 26 28
ENDBRANCH 23 26
ENDBRANCH 1 22
TORSDOF 13
ENDMDL
MODEL 229
USER: ADFR SOLUTION from run 145
USER: SCORE 5.020443 LL:  -2.339 LR:  -3.587 RR:   0.000 FEB:   0.291
USER: RMSD 5.132418
USER: SEED 144
USER: STATUS no improvement in best in 74 clusters for 5 generations
USER: GENES 15
USER: genes 0 Translation |==|  0.55738 0.52932 0.69423
USER: genes 1 Rotation |==|  0.52727 0.47363 0.42263 0.99252
USER: genes 2 Torsion [CB]-CA--N-[C] |==|  0.19849
USER: genes 3 Torsion [N]-C--CA-[N] |==|  0.35138
USER: genes 4 Torsion [C]-CA--N-[C] |==|  0.78734
USER: genes 5 Torsion [N]-C--CA-[N] |==|  0.34562
USER: genes 6 Torsion [C]-CA--N-[C] |==|  0.81045
USER: genes 7 Torsion [N]-C--CA-[N] |==|  0.35875
USER: genes 8 Torsion [N]-CA--C-[N] |==|  0.02662
USER: genes 9 Torsion [C]-N--CA-[CB] |==|  0.86015
USER: genes 10 Torsion [N]-CA--C-[N] |==|  0.88438
USER: genes 11 Torsion [C]-N--CA-[CB] |==|  0.84440
USER: genes 12 Torsion [N]-CA--C-[N] |==|  0.39954
USER: genes 13 Torsion [C]-N--CA-[C] |==|  0.76772
USER: genes 14 Torsion [N]-CA--C-[O] |==|  0.97890
ROOT
ATOM      1  CA  ALA E  11       0.071  24.157   4.690  1.00 85.35 LIG 0.17  C 
ATOM      2  CB  ALA E  11      -0.755  24.798   5.807  1.00 80.46 LIG 0.04  C 
ENDROOT
BRANCH 1 3
ATOM      3  N   ALA E  11       1.323  24.883   4.511  1.00 87.15 LIG-0.35  N 
ATOM      4  C   ALA E  10       2.291  24.799   5.429  1.00 62.15 LIG 0.24  C 
ATOM      5 O    ALA E  10       2.264  23.969   6.339  1.00 65.72 LIG-0.27  OA
ATOM      6 H    ALA E  11       1.374  25.350   3.790  1.00 87.15 LIG 0.16  HD
BRANCH 4 7
ATOM      7  CA  ALA E  10       3.456  25.774   5.315  1.00 66.45 LIG 0.17  C 
ATOM      8  CB  ALA E  10       4.732  25.033   4.918  1.00 58.63 LIG 0.04  C 
BRANCH 7 9
ATOM      9  N   ALA E  10       3.677  26.506   6.553  1.00 75.43 LIG-0.35  N 
ATOM     10  C   ALA E   9       2.907  27.520   6.943  1.00 82.21 LIG 0.24  C 
ATOM     11 O    ALA E   9       1.960  27.952   6.276  1.00 73.75 LIG-0.27  OA
ATOM     12 H    ALA E  10       4.350  26.224   7.008  1.00 75.43 LIG 0.16  HD
BRANCH 10 13
ATOM     13  CA  ALA E   9       3.272  28.164   8.273  1.00 87.65 LIG 0.17  C 
ATOM     14  CB  ALA E   9       2.187  27.916   9.319  1.00 72.21 LIG 0.04  C 
BRANCH 13 15
ATOM     15  N   ALA E   9       3.472  29.589   8.041  1.00 84.24 LIG-0.35  N 
ATOM     16 H    ALA E   9       2.874  30.092   8.402  1.00 84.24 LIG 0.16  HD
ATOM     17  C   ALA E   8       4.491  30.055   7.332  1.00 61.40 LIG 0.26  C 
ATOM     18 O    ALA E   8       5.387  29.332   6.902  1.00 66.21 LIG-0.27  OA
BRANCH 17 19
ATOM     19  CA  ALA E   8       4.518  31.562   7.097  1.00 67.03 LIG 0.40  C 
ATOM     20  N   ALA E   8       5.849  32.130   7.468  1.00 60.26 LIG 0.61  N 
ATOM     21  CB  ALA E   8       4.188  31.886   5.645  1.00 64.64 LIG 0.06  C 
ENDBRANCH 17 19
ENDBRANCH 13 15
ENDBRANCH 10 13
ENDBRANCH 7 9
ENDBRANCH 4 7
ENDBRANCH 1 3
BRANCH 1 22
ATOM     22  C   ALA E  11      -0.736  24.108   3.398  1.00 81.78 LIG 0.24  C 
ATOM     23  N   ALA E  12      -0.139  24.530   2.285  1.00 82.91 LIG-0.35  N 
ATOM     24 H    ALA E  12       0.697  24.723   2.220  1.00 82.91 LIG 0.16  HD
ATOM     25 O    ALA E  11      -1.904  23.702   3.401  1.00 89.30 LIG-0.27  OA
BRANCH 23 26
ATOM     26  CA  ALA E  12      -0.908  24.695   1.059  1.00 61.10 LIG 0.17  C 
ATOM     27  CB  ALA E  12      -1.732  23.434   0.759  1.00 65.27 LIG 0.04  C 
BRANCH 26 28
ATOM     28  C   ALA E  12      -1.815  25.912   1.158  1.00 54.59 LIG 0.24  C 
ATOM     29  N   ALA E  13      -2.424  26.060   2.334  1.00 64.78 LIG-0.35  N 
ATOM     30 H    ALA E  13      -2.278  25.555   3.015  1.00 64.78 LIG 0.16  HD
ATOM     31 O    ALA E  12      -1.930  26.706   0.221  1.00 69.11 LIG-0.27  OA
BRANCH 29 32
ATOM     32  CA  ALA E  13      -3.405  27.107   2.568  1.00 54.23 LIG 0.17  C 
ATOM     33  CB  ALA E  13      -2.794  28.474   2.255  1.00 56.27 LIG 0.04  C 
BRANCH 32 34
ATOM     34  C   ALA E  13      -4.651  26.935   1.718  1.00 65.29 LIG 0.24  C 
ATOM     35  N   ALA E  14      -5.791  27.281   2.305  1.00 85.74 LIG-0.35  N 
ATOM     36 H    ALA E  14      -5.842  27.549   3.120  1.00 85.74 LIG 0.16  HD
ATOM     37 O    ALA E  13      -4.581  26.558   0.545  1.00 75.52 LIG-0.27  OA
BRANCH 35 38
ATOM     38  CA  ALA E  14      -7.069  27.237   1.618  1.00 94.46 LIG 0.16  C 
ATOM     39  CB  ALA E  14      -8.190  27.055   2.616  1.00106.12 LIG 0.04  C 
BRANCH 38 40
ATOM     40  C   ALA E  14      -7.278  28.510   0.806  1.00 99.07 LIG 0.22  C 
ATOM     41 O    ALA E  14      -6.494  29.455   0.902  1.00120.33 LIG-0.29  OA
ENDBRANCH 38 40
ENDBRANCH 35 38
ENDBRANCH 32 34
ENDBRANCH 29 32
ENDBRANCH 26 28
ENDBRANCH 23 26
ENDBRANCH 1 22
TORSDOF 13
ENDMDL
MODEL 230
USER: ADFR SOLUTION from run 80
USER: SCORE 4.942080 LL:  -2.288 LR:  -3.586 RR:   0.000 FEB:   0.292
USER: RMSD 3.925633
USER: SEED 79
USER: STATUS no improvement in best in 41 clusters for 5 generations
USER: GENES 15
USER: genes 0 Translation |==|  0.60478 0.32967 0.60018
USER: genes 1 Rotation |==|  0.68327 0.40198 0.50787 0.95469
USER: genes 2 Torsion [CB]-CA--N-[C] |==|  0.85780
USER: genes 3 Torsion [N]-C--CA-[N] |==|  0.99223
USER: genes 4 Torsion [C]-CA--N-[C] |==|  0.72866
USER: genes 5 Torsion [N]-C--CA-[N] |==|  0.08837
USER: genes 6 Torsion [C]-CA--N-[C] |==|  0.74987
USER: genes 7 Torsion [N]-C--CA-[N] |==|  0.90375
USER: genes 8 Torsion [N]-CA--C-[N] |==|  0.88635
USER: genes 9 Torsion [C]-N--CA-[CB] |==|  0.84934
USER: genes 10 Torsion [N]-CA--C-[N] |==|  0.40172
USER: genes 11 Torsion [C]-N--CA-[CB] |==|  0.18220
USER: genes 12 Torsion [N]-CA--C-[N] |==|  0.08891
USER: genes 13 Torsion [C]-N--CA-[C] |==|  0.69728
USER: genes 14 Torsion [N]-CA--C-[O] |==|  0.96456
ROOT
ATOM      1  CA  ALA E  11       1.138  20.563   2.997  1.00 85.35 LIG 0.17  C 
ATOM      2  CB  ALA E  11      -0.159  20.258   3.750  1.00 80.46 LIG 0.04  C 
ENDROOT
BRANCH 1 3
ATOM      3  N   ALA E  11       1.965  21.480   3.774  1.00 87.15 LIG-0.35  N 
ATOM      4  C   ALA E  10       1.450  22.615   4.252  1.00 62.15 LIG 0.24  C 
ATOM      5 O    ALA E  10       0.240  22.845   4.243  1.00 65.72 LIG-0.27  OA
ATOM      6 H    ALA E  11       2.780  21.227   3.888  1.00 87.15 LIG 0.16  HD
BRANCH 4 7
ATOM      7  CA  ALA E  10       2.420  23.642   4.825  1.00 66.45 LIG 0.17  C 
ATOM      8  CB  ALA E  10       2.324  24.955   4.050  1.00 58.63 LIG 0.04  C 
BRANCH 7 9
ATOM      9  N   ALA E  10       3.794  23.161   4.810  1.00 75.43 LIG-0.35  N 
ATOM     10  C   ALA E   9       4.384  22.618   5.872  1.00 82.21 LIG 0.24  C 
ATOM     11 O    ALA E   9       3.834  22.504   6.973  1.00 73.75 LIG-0.27  OA
ATOM     12 H    ALA E  10       4.188  23.261   4.052  1.00 75.43 LIG 0.16  HD
BRANCH 10 13
ATOM     13  CA  ALA E   9       5.821  22.155   5.676  1.00 87.65 LIG 0.17  C 
ATOM     14  CB  ALA E   9       6.583  22.156   7.000  1.00 72.21 LIG 0.04  C 
BRANCH 13 15
ATOM     15  N   ALA E   9       6.447  23.039   4.701  1.00 84.24 LIG-0.35  N 
ATOM     16 H    ALA E   9       6.829  23.729   5.045  1.00 84.24 LIG 0.16  HD
ATOM     17  C   ALA E   8       6.421  22.790   3.399  1.00 61.40 LIG 0.26  C 
ATOM     18 O    ALA E   8       5.952  21.754   2.931  1.00 66.21 LIG-0.27  OA
BRANCH 17 19
ATOM     19  CA  ALA E   8       7.038  23.852   2.494  1.00 67.03 LIG 0.40  C 
ATOM     20  N   ALA E   8       6.802  25.218   3.049  1.00 60.26 LIG 0.61  N 
ATOM     21  CB  ALA E   8       8.531  23.602   2.314  1.00 64.64 LIG 0.06  C 
ENDBRANCH 17 19
ENDBRANCH 13 15
ENDBRANCH 10 13
ENDBRANCH 7 9
ENDBRANCH 4 7
ENDBRANCH 1 3
BRANCH 1 22
ATOM     22  C   ALA E  11       0.826  21.126   1.616  1.00 81.78 LIG 0.24  C 
ATOM     23  N   ALA E  12       0.535  22.423   1.532  1.00 82.91 LIG-0.35  N 
ATOM     24 H    ALA E  12       0.618  22.986   2.177  1.00 82.91 LIG 0.16  HD
ATOM     25 O    ALA E  11       0.833  20.392   0.621  1.00 89.30 LIG-0.27  OA
BRANCH 23 26
ATOM     26  CA  ALA E  12       0.039  22.984   0.283  1.00 61.10 LIG 0.17  C 
ATOM     27  CB  ALA E  12       0.993  22.659  -0.877  1.00 65.27 LIG 0.04  C 
BRANCH 26 28
ATOM     28  C   ALA E  12      -1.358  22.465  -0.017  1.00 54.59 LIG 0.24  C 
ATOM     29  N   ALA E  13      -2.167  23.345  -0.606  1.00 64.78 LIG-0.35  N 
ATOM     30 H    ALA E  13      -1.916  24.127  -0.863  1.00 64.78 LIG 0.16  HD
ATOM     31 O    ALA E  12      -1.681  21.302   0.240  1.00 69.11 LIG-0.27  OA
BRANCH 29 32
ATOM     32  CA  ALA E  13      -3.566  23.052  -0.870  1.00 54.23 LIG 0.17  C 
ATOM     33  CB  ALA E  13      -4.324  22.896   0.449  1.00 56.27 LIG 0.04  C 
BRANCH 32 34
ATOM     34  C   ALA E  13      -4.243  24.140  -1.684  1.00 65.29 LIG 0.24  C 
ATOM     35  N   ALA E  14      -3.459  24.770  -2.551  1.00 85.74 LIG-0.35  N 
ATOM     36 H    ALA E  14      -2.618  24.612  -2.631  1.00 85.74 LIG 0.16  HD
ATOM     37 O    ALA E  13      -5.451  24.364  -1.576  1.00 75.52 LIG-0.27  OA
BRANCH 35 38
ATOM     38  CA  ALA E  14      -3.955  25.795  -3.451  1.00 94.46 LIG 0.16  C 
ATOM     39  CB  ALA E  14      -3.098  27.037  -3.349  1.00106.12 LIG 0.04  C 
BRANCH 38 40
ATOM     40  C   ALA E  14      -3.975  25.276  -4.885  1.00 99.07 LIG 0.22  C 
ATOM     41 O    ALA E  14      -3.395  24.233  -5.186  1.00120.33 LIG-0.29  OA
ENDBRANCH 38 40
ENDBRANCH 35 38
ENDBRANCH 32 34
ENDBRANCH 29 32
ENDBRANCH 26 28
ENDBRANCH 23 26
ENDBRANCH 1 22
TORSDOF 13
ENDMDL
MODEL 231
USER: ADFR SOLUTION from run 169
USER: SCORE 4.217342 LL:  -2.694 LR:  -3.587 RR:   0.000 FEB:   0.291
USER: RMSD 5.755732
USER: SEED 168
USER: STATUS no improvement in best in 106 clusters for 5 generations
USER: GENES 15
USER: genes 0 Translation |==|  0.63195 0.33304 0.62665
USER: genes 1 Rotation |==|  0.53651 0.29985 0.56030 0.95274
USER: genes 2 Torsion [CB]-CA--N-[C] |==|  0.46362
USER: genes 3 Torsion [N]-C--CA-[N] |==|  0.08887
USER: genes 4 Torsion [C]-CA--N-[C] |==|  0.72313
USER: genes 5 Torsion [N]-C--CA-[N] |==|  0.37227
USER: genes 6 Torsion [C]-CA--N-[C] |==|  0.82213
USER: genes 7 Torsion [N]-C--CA-[N] |==|  0.34943
USER: genes 8 Torsion [N]-CA--C-[N] |==|  0.37833
USER: genes 9 Torsion [C]-N--CA-[CB] |==|  0.48968
USER: genes 10 Torsion [N]-CA--C-[N] |==|  0.41412
USER: genes 11 Torsion [C]-N--CA-[CB] |==|  0.51111
USER: genes 12 Torsion [N]-CA--C-[N] |==|  0.43132
USER: genes 13 Torsion [C]-N--CA-[C] |==|  0.70932
USER: genes 14 Torsion [N]-CA--C-[O] |==|  0.05516
ROOT
ATOM      1  CA  ALA E  11       1.749  20.624   3.474  1.00 85.35 LIG 0.17  C 
ATOM      2  CB  ALA E  11       0.226  20.699   3.601  1.00 80.46 LIG 0.04  C 
ENDROOT
BRANCH 1 3
ATOM      3  N   ALA E  11       2.354  21.864   3.948  1.00 87.15 LIG-0.35  N 
ATOM      4  C   ALA E  10       3.668  21.930   4.176  1.00 62.15 LIG 0.24  C 
ATOM      5 O    ALA E  10       4.445  21.047   3.813  1.00 65.72 LIG-0.27  OA
ATOM      6 H    ALA E  11       1.805  22.516   4.061  1.00 87.15 LIG 0.16  HD
BRANCH 4 7
ATOM      7  CA  ALA E  10       4.194  23.159   4.910  1.00 66.45 LIG 0.17  C 
ATOM      8  CB  ALA E  10       5.502  22.829   5.627  1.00 58.63 LIG 0.04  C 
BRANCH 7 9
ATOM      9  N   ALA E  10       3.226  23.679   5.864  1.00 75.43 LIG-0.35  N 
ATOM     10  C   ALA E   9       2.441  24.722   5.605  1.00 82.21 LIG 0.24  C 
ATOM     11 O    ALA E   9       2.485  25.363   4.549  1.00 73.75 LIG-0.27  OA
ATOM     12 H    ALA E  10       3.209  23.250   6.609  1.00 75.43 LIG 0.16  HD
BRANCH 10 13
ATOM     13  CA  ALA E   9       1.476  25.124   6.712  1.00 87.65 LIG 0.17  C 
ATOM     14  CB  ALA E   9       0.054  24.666   6.394  1.00 72.21 LIG 0.04  C 
BRANCH 13 15
ATOM     15  N   ALA E   9       1.547  26.571   6.865  1.00 84.24 LIG-0.35  N 
ATOM     16 H    ALA E   9       0.815  26.982   6.676  1.00 84.24 LIG 0.16  HD
ATOM     17  C   ALA E   8       2.652  27.188   7.262  1.00 61.40 LIG 0.26  C 
ATOM     18 O    ALA E   8       3.660  26.581   7.618  1.00 66.21 LIG-0.27  OA
BRANCH 17 19
ATOM     19  CA  ALA E   8       2.603  28.713   7.287  1.00 67.03 LIG 0.40  C 
ATOM     20  N   ALA E   8       2.991  29.230   8.634  1.00 60.26 LIG 0.61  N 
ATOM     21  CB  ALA E   8       3.512  29.298   6.212  1.00 64.64 LIG 0.06  C 
ENDBRANCH 17 19
ENDBRANCH 13 15
ENDBRANCH 10 13
ENDBRANCH 7 9
ENDBRANCH 4 7
ENDBRANCH 1 3
BRANCH 1 22
ATOM     22  C   ALA E  11       2.144  20.326   2.033  1.00 81.78 LIG 0.24  C 
ATOM     23  N   ALA E  12       2.487  19.073   1.735  1.00 82.91 LIG-0.35  N 
ATOM     24 H    ALA E  12       2.397  18.402   2.266  1.00 82.91 LIG 0.16  HD
ATOM     25 O    ALA E  11       2.153  21.225   1.183  1.00 89.30 LIG-0.27  OA
BRANCH 23 26
ATOM     26  CA  ALA E  12       3.059  18.759   0.434  1.00 61.10 LIG 0.17  C 
ATOM     27  CB  ALA E  12       3.458  17.278   0.357  1.00 65.27 LIG 0.04  C 
BRANCH 26 28
ATOM     28  C   ALA E  12       2.080  19.105  -0.677  1.00 54.59 LIG 0.24  C 
ATOM     29  N   ALA E  13       2.646  19.477  -1.825  1.00 64.78 LIG-0.35  N 
ATOM     30 H    ALA E  13       3.495  19.466  -1.965  1.00 64.78 LIG 0.16  HD
ATOM     31 O    ALA E  12       0.861  19.003  -0.515  1.00 69.11 LIG-0.27  OA
BRANCH 29 32
ATOM     32  CA  ALA E  13       1.861  19.941  -2.957  1.00 54.23 LIG 0.17  C 
ATOM     33  CB  ALA E  13       2.775  20.200  -4.156  1.00 56.27 LIG 0.04  C 
BRANCH 32 34
ATOM     34  C   ALA E  13       0.798  18.940  -3.374  1.00 65.29 LIG 0.24  C 
ATOM     35  N   ALA E  14      -0.247  19.456  -4.010  1.00 85.74 LIG-0.35  N 
ATOM     36 H    ALA E  14      -0.349  20.297  -4.151  1.00 85.74 LIG 0.16  HD
ATOM     37 O    ALA E  13       0.946  17.731  -3.182  1.00 75.52 LIG-0.27  OA
BRANCH 35 38
ATOM     38  CA  ALA E  14      -1.326  18.636  -4.533  1.00 94.46 LIG 0.16  C 
ATOM     39  CB  ALA E  14      -2.663  19.227  -4.146  1.00106.12 LIG 0.04  C 
BRANCH 38 40
ATOM     40  C   ALA E  14      -1.213  18.514  -6.048  1.00 99.07 LIG 0.22  C 
ATOM     41 O    ALA E  14      -0.147  18.740  -6.621  1.00120.33 LIG-0.29  OA
ENDBRANCH 38 40
ENDBRANCH 35 38
ENDBRANCH 32 34
ENDBRANCH 29 32
ENDBRANCH 26 28
ENDBRANCH 23 26
ENDBRANCH 1 22
TORSDOF 13
ENDMDL
MODEL 232
USER: ADFR SOLUTION from run 23
USER: SCORE 3.839885 LL:  -2.757 LR:  -3.595 RR:   0.000 FEB:   0.283
USER: RMSD 5.079168
USER: SEED 22
USER: STATUS no improvement in best in 83 clusters for 5 generations
USER: GENES 15
USER: genes 0 Translation |==|  0.61702 0.34688 0.62533
USER: genes 1 Rotation |==|  0.44760 0.35395 0.49126 0.97523
USER: genes 2 Torsion [CB]-CA--N-[C] |==|  0.40488
USER: genes 3 Torsion [N]-C--CA-[N] |==|  0.09802
USER: genes 4 Torsion [C]-CA--N-[C] |==|  0.18231
USER: genes 5 Torsion [N]-C--CA-[N] |==|  0.02776
USER: genes 6 Torsion [C]-CA--N-[C] |==|  0.77539
USER: genes 7 Torsion [N]-C--CA-[N] |==|  0.30851
USER: genes 8 Torsion [N]-CA--C-[N] |==|  0.14598
USER: genes 9 Torsion [C]-N--CA-[CB] |==|  0.86942
USER: genes 10 Torsion [N]-CA--C-[N] |==|  0.93557
USER: genes 11 Torsion [C]-N--CA-[CB] |==|  0.87206
USER: genes 12 Torsion [N]-CA--C-[N] |==|  0.86321
USER: genes 13 Torsion [C]-N--CA-[C] |==|  0.77153
USER: genes 14 Torsion [N]-CA--C-[O] |==|  0.96394
ROOT
ATOM      1  CA  ALA E  11       1.413  20.873   3.450  1.00 85.35 LIG 0.17  C 
ATOM      2  CB  ALA E  11       0.096  21.575   3.786  1.00 80.46 LIG 0.04  C 
ENDROOT
BRANCH 1 3
ATOM      3  N   ALA E  11       2.511  21.833   3.463  1.00 87.15 LIG-0.35  N 
ATOM      4  C   ALA E  10       3.727  21.464   3.873  1.00 62.15 LIG 0.24  C 
ATOM      5 O    ALA E  10       4.030  20.284   4.057  1.00 65.72 LIG-0.27  OA
ATOM      6 H    ALA E  11       2.306  22.624   3.193  1.00 87.15 LIG 0.16  HD
BRANCH 4 7
ATOM      7  CA  ALA E  10       4.756  22.564   4.107  1.00 66.45 LIG 0.17  C 
ATOM      8  CB  ALA E  10       5.850  22.075   5.055  1.00 58.63 LIG 0.04  C 
BRANCH 7 9
ATOM      9  N   ALA E  10       4.147  23.774   4.640  1.00 75.43 LIG-0.35  N 
ATOM     10  C   ALA E   9       3.580  23.831   5.843  1.00 82.21 LIG 0.24  C 
ATOM     11 O    ALA E   9       3.490  22.858   6.601  1.00 73.75 LIG-0.27  OA
ATOM     12 H    ALA E  10       4.187  24.447   4.106  1.00 75.43 LIG 0.16  HD
BRANCH 10 13
ATOM     13  CA  ALA E   9       3.003  25.181   6.248  1.00 87.65 LIG 0.17  C 
ATOM     14  CB  ALA E   9       1.593  25.027   6.813  1.00 72.21 LIG 0.04  C 
BRANCH 13 15
ATOM     15  N   ALA E   9       3.016  26.044   5.074  1.00 84.24 LIG-0.35  N 
ATOM     16 H    ALA E   9       2.259  26.097   4.669  1.00 84.24 LIG 0.16  HD
ATOM     17  C   ALA E   8       4.107  26.684   4.677  1.00 61.40 LIG 0.26  C 
ATOM     18 O    ALA E   8       5.155  26.671   5.319  1.00 66.21 LIG-0.27  OA
BRANCH 17 19
ATOM     19  CA  ALA E   8       3.990  27.477   3.379  1.00 67.03 LIG 0.40  C 
ATOM     20  N   ALA E   8       4.060  28.944   3.650  1.00 60.26 LIG 0.61  N 
ATOM     21  CB  ALA E   8       5.083  27.066   2.398  1.00 64.64 LIG 0.06  C 
ENDBRANCH 17 19
ENDBRANCH 13 15
ENDBRANCH 10 13
ENDBRANCH 7 9
ENDBRANCH 4 7
ENDBRANCH 1 3
BRANCH 1 22
ATOM     22  C   ALA E  11       1.305  20.166   2.104  1.00 81.78 LIG 0.24  C 
ATOM     23  N   ALA E  12       2.405  19.588   1.624  1.00 82.91 LIG-0.35  N 
ATOM     24 H    ALA E  12       3.138  19.489   2.063  1.00 82.91 LIG 0.16  HD
ATOM     25 O    ALA E  11       0.234  20.148   1.487  1.00 89.30 LIG-0.27  OA
BRANCH 23 26
ATOM     26  CA  ALA E  12       2.425  19.068   0.263  1.00 61.10 LIG 0.17  C 
ATOM     27  CB  ALA E  12       1.169  18.229  -0.017  1.00 65.27 LIG 0.04  C 
BRANCH 26 28
ATOM     28  C   ALA E  12       2.541  20.204  -0.740  1.00 54.59 LIG 0.24  C 
ATOM     29  N   ALA E  13       2.124  21.388  -0.294  1.00 64.78 LIG-0.35  N 
ATOM     30 H    ALA E  13       1.868  21.531   0.515  1.00 64.78 LIG 0.16  HD
ATOM     31 O    ALA E  12       3.024  20.024  -1.862  1.00 69.11 LIG-0.27  OA
BRANCH 29 32
ATOM     32  CA  ALA E  13       2.067  22.560  -1.153  1.00 54.23 LIG 0.17  C 
ATOM     33  CB  ALA E  13       3.361  22.680  -1.959  1.00 56.27 LIG 0.04  C 
BRANCH 32 34
ATOM     34  C   ALA E  13       0.902  22.509  -2.125  1.00 65.29 LIG 0.24  C 
ATOM     35  N   ALA E  14       0.778  21.374  -2.803  1.00 85.74 LIG-0.35  N 
ATOM     36 H    ALA E  14       1.332  20.720  -2.737  1.00 85.74 LIG 0.16  HD
ATOM     37 O    ALA E  13       0.101  23.443  -2.216  1.00 75.52 LIG-0.27  OA
BRANCH 35 38
ATOM     38  CA  ALA E  14      -0.313  21.132  -3.729  1.00 94.46 LIG 0.16  C 
ATOM     39  CB  ALA E  14       0.095  20.101  -4.757  1.00106.12 LIG 0.04  C 
BRANCH 38 40
ATOM     40  C   ALA E  14      -1.556  20.672  -2.975  1.00 99.07 LIG 0.22  C 
ATOM     41 O    ALA E  14      -1.484  20.324  -1.796  1.00120.33 LIG-0.29  OA
ENDBRANCH 38 40
ENDBRANCH 35 38
ENDBRANCH 32 34
ENDBRANCH 29 32
ENDBRANCH 26 28
ENDBRANCH 23 26
ENDBRANCH 1 22
TORSDOF 13
ENDMDL
