MODEL 1
USER: ADFR SOLUTION from run 118
USER: SCORE 23.845454 LL:  -4.222 LR: -21.376 RR:   0.000 FEB: -11.532
USER: RMSD 2.561582
USER: SEED 117
USER: STATUS no improvement in best in 2 clusters for 5 generations
USER: GENES 35
USER: genes 0 Translation |==|  0.44136 0.39731 0.34422
USER: genes 1 Rotation |==|  0.54452 0.56538 0.55157 0.99100
USER: genes 2 Torsion [C]-CA--N-[C] |==|  0.67748
USER: genes 3 Torsion [N]-C--CA-[N] |==|  0.96647
USER: genes 4 Torsion [C]-CA--N-[C] |==|  0.83144
USER: genes 5 Torsion [N]-C--CA-[N] |==|  0.39091
USER: genes 6 Torsion [C]-CA--CB-[CG] |==|  0.41354
USER: genes 7 Torsion [CA]-CB--CG-[CD] |==|  0.11159
USER: genes 8 Torsion [CB]-CG--CD-[CE] |==|  0.49144
USER: genes 9 Torsion [CG]-CD--CE-[NZ] |==|  0.49418
USER: genes 10 Torsion [CD]-CE--NZ-[HZ2] |==|  0.73972
USER: genes 11 Torsion [C]-CA--N-[C] |==|  0.71232
USER: genes 12 Torsion [N]-C--CA-[N] |==|  0.31382
USER: genes 13 Torsion [C]-CA--CB-[OG] |==|  0.66496
USER: genes 14 Torsion [CA]-CB--OG-[HG] |==|  0.08217
USER: genes 15 Torsion [C]-CA--N-[H2] |==|  0.05998
USER: genes 16 Torsion [C]-CA--CB-[CG] |==|  0.97659
USER: genes 17 Torsion [CA]-CB--CG-[SD] |==|  0.27952
USER: genes 18 Torsion [CB]-CG--SD-[CE] |==|  0.53965
USER: genes 19 Torsion [N]-CA--CB-[CG] |==|  0.99001
USER: genes 20 Torsion [CA]-CB--CG-[CD] |==|  0.19247
USER: genes 21 Torsion [CB]-CG--CD-[OE2] |==|  0.18155
USER: genes 22 Torsion [N]-CA--C-[N] |==|  0.10821
USER: genes 23 Torsion [C]-N--CA-[CB] |==|  0.26805
USER: genes 24 Torsion [N]-CA--C-[N] |==|  0.34491
USER: genes 25 Torsion [C]-N--CA-[C] |==|  0.79713
USER: genes 26 Torsion [N]-CA--CB-[CG2] |==|  0.12490
USER: genes 27 Torsion [N]-CA--C-[N] |==|  0.42619
USER: genes 28 Torsion [C]-N--CA-[C] |==|  0.63304
USER: genes 29 Torsion [N]-CA--C-[O] |==|  0.55883
USER: genes 30 Torsion [N]-CA--CB-[CG] |==|  0.86314
USER: genes 31 Torsion [CA]-CB--CG-[OD1] |==|  0.23442
USER: genes 32 Torsion [N]-CA--CB-[CG] |==|  0.47461
USER: genes 33 Torsion [CA]-CB--CG-[CD] |==|  0.58454
USER: genes 34 Torsion [CB]-CG--CD-[OE2] |==|  0.51272
ROOT
ATOM      1  CA  GLU c   4      18.675  22.988  66.810  1.00 41.78 LIG 0.18  C 
ENDROOT
BRANCH 1 2
ATOM      2  N   GLU c   4      19.302  22.296  67.915  1.00 36.98 LIG-0.35  N 
ATOM      3 H    GLU c   4      18.879  22.363  68.660  1.00 36.98 LIG 0.16  HD
ATOM      4  C   MET c   3      20.430  21.625  67.769  1.00 39.25 LIG 0.24  C 
ATOM      5 O    MET c   3      21.068  21.633  66.715  1.00 33.30 LIG-0.27  OA
BRANCH 4 6
ATOM      6  CA  MET c   3      20.903  20.797  68.983  1.00 43.32 LIG 0.18  C 
BRANCH 6 7
ATOM      7  N   MET c   3      20.211  21.049  70.261  1.00 44.06 LIG-0.35  N 
ATOM      8 H    MET c   3      19.816  20.347  70.565  1.00 44.06 LIG 0.16  HD
ATOM      9  C   LYS c   2      20.173  22.217  70.910  1.00 50.87 LIG 0.24  C 
ATOM     10 O    LYS c   2      20.605  23.287  70.449  1.00 41.81 LIG-0.27  OA
BRANCH 9 11
ATOM     11  CA  LYS c   2      19.519  22.161  72.310  1.00 52.27 LIG 0.18  C 
BRANCH 11 12
ATOM     12  CB  LYS c   2      18.031  22.566  72.216  1.00 56.87 LIG 0.04  C 
BRANCH 12 13
ATOM     13  CG  LYS c   2      17.135  21.888  73.232  1.00 55.18 LIG 0.00  C 
BRANCH 13 14
ATOM     14  CD  LYS c   2      17.829  21.807  74.575  1.00 56.62 LIG 0.03  C 
BRANCH 14 15
ATOM     15  CE  LYS c   2      16.928  21.203  75.624  1.00 60.10 LIG 0.23  C 
BRANCH 15 16
ATOM     16  NZ  LYS c   2      17.700  21.115  76.888  1.00 62.98 LIG-0.08  N 
ATOM     17 HZ2  LYS c   2      18.074  20.311  76.952  1.00 62.98 LIG 0.27  HD
ATOM     18 HZ3  LYS c   2      18.335  21.738  76.893  1.00 62.98 LIG 0.27  HD
ATOM     19 HZ1  LYS c   2      17.154  21.243  77.580  1.00 62.98 LIG 0.27  HD
ENDBRANCH 15 16
ENDBRANCH 14 15
ENDBRANCH 13 14
ENDBRANCH 12 13
ENDBRANCH 11 12
BRANCH 11 20
ATOM     20  N   LYS c   2      20.216  22.998  73.296  1.00 43.42 LIG-0.35  N 
ATOM     21 H    LYS c   2      20.049  23.838  73.209  1.00 43.42 LIG 0.16  HD
ATOM     22  C   SER c   1      21.030  22.517  74.240  1.00 43.78 LIG 0.25  C 
ATOM     23 O    SER c   1      21.338  21.331  74.359  1.00 50.72 LIG-0.27  OA
BRANCH 22 24
ATOM     24  CA  SER c   1      21.589  23.533  75.218  1.00 42.10 LIG 0.30  C 
BRANCH 24 25
ATOM     25  CB  SER c   1      23.120  23.435  75.235  1.00 37.65 LIG 0.21  C 
BRANCH 25 26
ATOM     26 OG   SER c   1      23.626  23.126  76.517  1.00 37.04 LIG-0.40  OA
ATOM     27 HG   SER c   1      23.061  22.669  76.939  1.00 37.04 LIG 0.21  HD
ENDBRANCH 25 26
ENDBRANCH 24 25
BRANCH 24 28
ATOM     28  N   SER c   1      20.991  23.222  76.555  1.00 43.63 LIG-0.06  N 
ATOM     29 H2   SER c   1      20.714  22.376  76.567  1.00 43.63 LIG 0.28  HD
ATOM     30 H3   SER c   1      21.603  23.342  77.190  1.00 43.63 LIG 0.28  HD
ATOM     31 H1   SER c   1      20.299  23.762  76.705  1.00 43.63 LIG 0.28  HD
ENDBRANCH 24 28
ENDBRANCH 22 24
ENDBRANCH 11 20
ENDBRANCH 9 11
ENDBRANCH 6 7
BRANCH 6 32
ATOM     32  CB  MET c   3      20.746  19.304  68.677  1.00 42.03 LIG 0.04  C 
BRANCH 32 33
ATOM     33  CG  MET c   3      20.014  18.943  67.410  1.00 44.17 LIG 0.08  C 
BRANCH 33 34
ATOM     34 SD   MET c   3      21.087  18.495  66.046  1.00 39.95 LIG-0.17  SA
ATOM     35  CE  MET c   3      19.828  18.613  64.800  1.00 32.62 LIG 0.09  C 
ENDBRANCH 33 34
ENDBRANCH 32 33
ENDBRANCH 6 32
ENDBRANCH 4 6
ENDBRANCH 1 2
BRANCH 1 36
ATOM     36  CB  GLU c   4      17.262  22.395  66.565  1.00 53.02 LIG 0.04  C 
BRANCH 36 37
ATOM     37  CG  GLU c   4      16.858  21.194  67.434  1.00 67.39 LIG 0.12  C 
BRANCH 37 38
ATOM     38  CD  GLU c   4      16.642  21.568  68.902  1.00 71.96 LIG 0.17  C 
ATOM     39 OE2  GLU c   4      15.695  22.342  69.209  1.00 61.28 LIG-0.65  OA
ATOM     40 OE1  GLU c   4      17.429  21.083  69.752  1.00 68.78 LIG-0.65  OA
ENDBRANCH 37 38
ENDBRANCH 36 37
ENDBRANCH 1 36
BRANCH 1 41
ATOM     41  C   GLU c   4      18.647  24.502  67.069  1.00 40.98 LIG 0.24  C 
ATOM     42 O    GLU c   4      17.663  25.163  66.729  1.00 47.04 LIG-0.27  OA
ATOM     43  N   GLU c   5      19.718  25.055  67.650  1.00 35.89 LIG-0.35  N 
ATOM     44 H    GLU c   5      20.363  24.599  67.990  1.00 35.89 LIG 0.16  HD
BRANCH 43 45
ATOM     45  CA  GLU c   5      19.891  26.518  67.762  1.00 35.53 LIG 0.18  C 
BRANCH 45 46
ATOM     46  C   GLU c   5      21.344  26.933  67.578  1.00 33.86 LIG 0.24  C 
ATOM     47 O    GLU c   5      22.213  26.500  68.323  1.00 26.34 LIG-0.27  OA
ATOM     48  N   VAL c   6      21.580  27.828  66.619  1.00 31.71 LIG-0.35  N 
ATOM     49 H    VAL c   6      20.979  28.110  66.072  1.00 31.71 LIG 0.16  HD
BRANCH 48 50
ATOM     50  CA  VAL c   6      22.911  28.426  66.409  1.00 31.16 LIG 0.18  C 
BRANCH 50 51
ATOM     51  CB  VAL c   6      23.078  28.999  64.964  1.00 25.00 LIG 0.01  C 
ATOM     52  CG1 VAL c   6      23.314  27.855  64.012  1.00 20.51 LIG 0.01  C 
ATOM     53  CG2 VAL c   6      21.873  29.819  64.477  1.00 20.94 LIG 0.01  C 
ENDBRANCH 50 51
BRANCH 50 54
ATOM     54  C   VAL c   6      23.246  29.440  67.519  1.00 33.11 LIG 0.24  C 
ATOM     55 O    VAL c   6      22.343  30.005  68.127  1.00 31.28 LIG-0.27  OA
ATOM     56  N   ASP c   7      24.548  29.638  67.782  1.00 31.84 LIG-0.34  N 
ATOM     57 H    ASP c   7      25.176  29.272  67.322  1.00 31.84 LIG 0.16  HD
BRANCH 56 58
ATOM     58  CA  ASP c   7      25.049  30.489  68.868  1.00 33.25 LIG 0.20  C 
BRANCH 58 59
ATOM     59  C   ASP c   7      26.151  31.460  68.421  1.00 36.36 LIG 0.20  C 
ATOM     60 OXT  ASP c   7      26.270  31.752  67.230  1.00 36.21 LIG-0.65  OA
ATOM     61 O    ASP c   7      26.960  31.978  69.223  1.00 30.31 LIG-0.65  OA
ENDBRANCH 58 59
BRANCH 58 62
ATOM     62  CB  ASP c   7      25.580  29.602  69.997  1.00 37.10 LIG 0.15  C 
BRANCH 62 63
ATOM     63  CG  ASP c   7      24.610  28.533  70.382  1.00 37.44 LIG 0.17  C 
ATOM     64 OD1  ASP c   7      24.590  27.469  69.735  1.00 43.19 LIG-0.65  OA
ATOM     65 OD2  ASP c   7      23.847  28.751  71.332  1.00 52.04 LIG-0.65  OA
ENDBRANCH 62 63
ENDBRANCH 58 62
ENDBRANCH 56 58
ENDBRANCH 50 54
ENDBRANCH 48 50
ENDBRANCH 45 46
BRANCH 45 66
ATOM     66  CB  GLU c   5      19.426  27.027  69.131  1.00 40.99 LIG 0.04  C 
BRANCH 66 67
ATOM     67  CG  GLU c   5      19.772  28.490  69.412  1.00 49.45 LIG 0.12  C 
BRANCH 67 68
ATOM     68  CD  GLU c   5      19.996  28.761  70.888  1.00 57.05 LIG 0.17  C 
ATOM     69 OE2  GLU c   5      20.199  29.931  71.256  1.00 42.85 LIG-0.65  OA
ATOM     70 OE1  GLU c   5      19.950  27.797  71.686  1.00 67.91 LIG-0.65  OA
ENDBRANCH 67 68
ENDBRANCH 66 67
ENDBRANCH 45 66
ENDBRANCH 43 45
ENDBRANCH 1 41
TORSDOF 33
ENDMDL
MODEL 2
USER: ADFR SOLUTION from run 173
USER: SCORE 24.808873 LL:  -6.741 LR: -20.462 RR:   0.000 FEB: -10.618
USER: RMSD 2.515788
USER: SEED 172
USER: STATUS no improvement in best in 1 clusters for 5 generations
USER: GENES 35
USER: genes 0 Translation |==|  0.44506 0.38138 0.29312
USER: genes 1 Rotation |==|  0.43862 0.58597 0.53237 0.98764
USER: genes 2 Torsion [C]-CA--N-[C] |==|  0.66667
USER: genes 3 Torsion [N]-C--CA-[N] |==|  0.03966
USER: genes 4 Torsion [C]-CA--N-[C] |==|  0.74517
USER: genes 5 Torsion [N]-C--CA-[N] |==|  0.32612
USER: genes 6 Torsion [C]-CA--CB-[CG] |==|  0.30068
USER: genes 7 Torsion [CA]-CB--CG-[CD] |==|  0.12549
USER: genes 8 Torsion [CB]-CG--CD-[CE] |==|  0.52523
USER: genes 9 Torsion [CG]-CD--CE-[NZ] |==|  0.03048
USER: genes 10 Torsion [CD]-CE--NZ-[HZ2] |==|  0.15913
USER: genes 11 Torsion [C]-CA--N-[C] |==|  0.68772
USER: genes 12 Torsion [N]-C--CA-[N] |==|  0.39255
USER: genes 13 Torsion [C]-CA--CB-[OG] |==|  0.51465
USER: genes 14 Torsion [CA]-CB--OG-[HG] |==|  0.20875
USER: genes 15 Torsion [C]-CA--N-[H2] |==|  0.79014
USER: genes 16 Torsion [C]-CA--CB-[CG] |==|  0.78406
USER: genes 17 Torsion [CA]-CB--CG-[SD] |==|  0.37399
USER: genes 18 Torsion [CB]-CG--SD-[CE] |==|  0.46365
USER: genes 19 Torsion [N]-CA--CB-[CG] |==|  0.92882
USER: genes 20 Torsion [CA]-CB--CG-[CD] |==|  0.24974
USER: genes 21 Torsion [CB]-CG--CD-[OE2] |==|  0.60245
USER: genes 22 Torsion [N]-CA--C-[N] |==|  0.02615
USER: genes 23 Torsion [C]-N--CA-[CB] |==|  0.32057
USER: genes 24 Torsion [N]-CA--C-[N] |==|  0.61577
USER: genes 25 Torsion [C]-N--CA-[C] |==|  0.59233
USER: genes 26 Torsion [N]-CA--CB-[CG2] |==|  0.12798
USER: genes 27 Torsion [N]-CA--C-[N] |==|  0.48501
USER: genes 28 Torsion [C]-N--CA-[C] |==|  0.61565
USER: genes 29 Torsion [N]-CA--C-[O] |==|  0.05716
USER: genes 30 Torsion [N]-CA--CB-[CG] |==|  0.83299
USER: genes 31 Torsion [CA]-CB--CG-[OD1] |==|  0.26211
USER: genes 32 Torsion [N]-CA--CB-[CG] |==|  0.03538
USER: genes 33 Torsion [CA]-CB--CG-[CD] |==|  0.23105
USER: genes 34 Torsion [CB]-CG--CD-[OE2] |==|  0.38102
ROOT
ATOM      1  CA  GLU c   4      18.755  22.618  65.698  1.00 41.78 LIG 0.18  C 
ENDROOT
BRANCH 1 2
ATOM      2  N   GLU c   4      19.433  22.445  66.965  1.00 36.98 LIG-0.35  N 
ATOM      3 H    GLU c   4      19.075  22.873  67.619  1.00 36.98 LIG 0.16  HD
ATOM      4  C   MET c   3      20.510  21.689  67.083  1.00 39.25 LIG 0.24  C 
ATOM      5 O    MET c   3      21.061  21.173  66.110  1.00 33.30 LIG-0.27  OA
BRANCH 4 6
ATOM      6  CA  MET c   3      21.036  21.457  68.516  1.00 43.32 LIG 0.18  C 
BRANCH 6 7
ATOM      7  N   MET c   3      20.123  21.815  69.618  1.00 44.06 LIG-0.35  N 
ATOM      8 H    MET c   3      19.603  21.166  69.838  1.00 44.06 LIG 0.16  HD
ATOM      9  C   LYS c   2      20.073  22.999  70.236  1.00 50.87 LIG 0.24  C 
ATOM     10 O    LYS c   2      20.701  24.007  69.868  1.00 41.81 LIG-0.27  OA
BRANCH 9 11
ATOM     11  CA  LYS c   2      19.140  23.050  71.467  1.00 52.27 LIG 0.18  C 
BRANCH 11 12
ATOM     12  CB  LYS c   2      18.020  24.091  71.241  1.00 56.87 LIG 0.04  C 
BRANCH 12 13
ATOM     13  CG  LYS c   2      16.650  23.490  71.005  1.00 55.18 LIG 0.00  C 
BRANCH 13 14
ATOM     14  CD  LYS c   2      16.380  22.386  72.003  1.00 56.62 LIG 0.03  C 
BRANCH 14 15
ATOM     15  CE  LYS c   2      15.123  21.626  71.656  1.00 60.10 LIG 0.23  C 
BRANCH 15 16
ATOM     16  NZ  LYS c   2      14.704  22.042  70.294  1.00 62.98 LIG-0.08  N 
ATOM     17 HZ2  LYS c   2      15.365  21.887  69.720  1.00 62.98 LIG 0.27  HD
ATOM     18 HZ3  LYS c   2      13.985  21.578  70.050  1.00 62.98 LIG 0.27  HD
ATOM     19 HZ1  LYS c   2      14.509  22.911  70.295  1.00 62.98 LIG 0.27  HD
ENDBRANCH 15 16
ENDBRANCH 14 15
ENDBRANCH 13 14
ENDBRANCH 12 13
ENDBRANCH 11 12
BRANCH 11 20
ATOM     20  N   LYS c   2      19.861  23.339  72.715  1.00 43.42 LIG-0.35  N 
ATOM     21 H    LYS c   2      20.186  24.135  72.745  1.00 43.42 LIG 0.16  HD
ATOM     22  C   SER c   1      20.005  22.461  73.712  1.00 43.78 LIG 0.25  C 
ATOM     23 O    SER c   1      19.607  21.297  73.682  1.00 50.72 LIG-0.27  OA
BRANCH 22 24
ATOM     24  CA  SER c   1      20.710  22.975  74.953  1.00 42.10 LIG 0.30  C 
BRANCH 24 25
ATOM     25  CB  SER c   1      22.190  22.571  74.902  1.00 37.65 LIG 0.21  C 
BRANCH 25 26
ATOM     26 OG   SER c   1      22.883  22.914  76.085  1.00 37.04 LIG-0.40  OA
ATOM     27 HG   SER c   1      22.675  22.378  76.698  1.00 37.04 LIG 0.21  HD
ENDBRANCH 25 26
ENDBRANCH 24 25
BRANCH 24 28
ATOM     28  N   SER c   1      20.005  22.376  76.131  1.00 43.63 LIG-0.06  N 
ATOM     29 H2   SER c   1      19.230  22.796  76.257  1.00 43.63 LIG 0.28  HD
ATOM     30 H3   SER c   1      19.852  21.513  75.978  1.00 43.63 LIG 0.28  HD
ATOM     31 H1   SER c   1      20.512  22.464  76.857  1.00 43.63 LIG 0.28  HD
ENDBRANCH 24 28
ENDBRANCH 22 24
ENDBRANCH 11 20
ENDBRANCH 9 11
ENDBRANCH 6 7
BRANCH 6 32
ATOM     32  CB  MET c   3      21.395  19.978  68.696  1.00 42.03 LIG 0.04  C 
BRANCH 32 33
ATOM     33  CG  MET c   3      20.251  19.022  68.915  1.00 44.17 LIG 0.08  C 
BRANCH 33 34
ATOM     34 SD   MET c   3      20.352  17.522  67.938  1.00 39.95 LIG-0.17  SA
ATOM     35  CE  MET c   3      19.091  16.654  68.836  1.00 32.62 LIG 0.09  C 
ENDBRANCH 33 34
ENDBRANCH 32 33
ENDBRANCH 6 32
ENDBRANCH 4 6
ENDBRANCH 1 2
BRANCH 1 36
ATOM     36  CB  GLU c   4      17.332  22.006  65.788  1.00 53.02 LIG 0.04  C 
BRANCH 36 37
ATOM     37  CG  GLU c   4      17.127  20.883  66.816  1.00 67.39 LIG 0.12  C 
BRANCH 37 38
ATOM     38  CD  GLU c   4      16.700  21.405  68.189  1.00 71.96 LIG 0.17  C 
ATOM     39 OE2  GLU c   4      17.137  20.838  69.227  1.00 61.28 LIG-0.65  OA
ATOM     40 OE1  GLU c   4      15.919  22.387  68.227  1.00 68.78 LIG-0.65  OA
ENDBRANCH 37 38
ENDBRANCH 36 37
ENDBRANCH 1 36
BRANCH 1 41
ATOM     41  C   GLU c   4      18.741  24.100  65.294  1.00 40.98 LIG 0.24  C 
ATOM     42 O    GLU c   4      18.070  24.463  64.326  1.00 47.04 LIG-0.27  OA
ATOM     43  N   GLU c   5      19.484  24.949  66.012  1.00 35.89 LIG-0.35  N 
ATOM     44 H    GLU c   5      19.870  24.736  66.750  1.00 35.89 LIG 0.16  HD
BRANCH 43 45
ATOM     45  CA  GLU c   5      19.711  26.349  65.597  1.00 35.53 LIG 0.18  C 
BRANCH 45 46
ATOM     46  C   GLU c   5      21.194  26.674  65.485  1.00 33.86 LIG 0.24  C 
ATOM     47 O    GLU c   5      21.978  25.848  65.037  1.00 26.34 LIG-0.27  OA
ATOM     48  N   VAL c   6      21.571  27.861  65.960  1.00 31.71 LIG-0.35  N 
ATOM     49 H    VAL c   6      21.019  28.456  66.244  1.00 31.71 LIG 0.16  HD
BRANCH 48 50
ATOM     50  CA  VAL c   6      22.987  28.263  66.044  1.00 31.16 LIG 0.18  C 
BRANCH 50 51
ATOM     51  CB  VAL c   6      23.508  28.866  64.699  1.00 25.00 LIG 0.01  C 
ATOM     52  CG1 VAL c   6      23.739  27.743  63.721  1.00 20.51 LIG 0.01  C 
ATOM     53  CG2 VAL c   6      22.557  29.895  64.068  1.00 20.94 LIG 0.01  C 
ENDBRANCH 50 51
BRANCH 50 54
ATOM     54  C   VAL c   6      23.235  29.168  67.265  1.00 33.11 LIG 0.24  C 
ATOM     55 O    VAL c   6      22.294  29.523  67.968  1.00 31.28 LIG-0.27  OA
ATOM     56  N   ASP c   7      24.510  29.510  67.513  1.00 31.84 LIG-0.34  N 
ATOM     57 H    ASP c   7      25.159  29.294  66.992  1.00 31.84 LIG 0.16  HD
BRANCH 56 58
ATOM     58  CA  ASP c   7      24.943  30.281  68.684  1.00 33.25 LIG 0.20  C 
BRANCH 58 59
ATOM     59  C   ASP c   7      26.000  31.345  68.355  1.00 36.36 LIG 0.20  C 
ATOM     60 OXT  ASP c   7      26.714  31.801  69.249  1.00 36.21 LIG-0.65  OA
ATOM     61 O    ASP c   7      26.172  31.790  67.198  1.00 30.31 LIG-0.65  OA
ENDBRANCH 58 59
BRANCH 58 62
ATOM     62  CB  ASP c   7      25.498  29.321  69.741  1.00 37.10 LIG 0.15  C 
BRANCH 62 63
ATOM     63  CG  ASP c   7      24.481  28.325  70.191  1.00 37.44 LIG 0.17  C 
ATOM     64 OD1  ASP c   7      24.440  27.207  69.642  1.00 43.19 LIG-0.65  OA
ATOM     65 OD2  ASP c   7      23.701  28.653  71.095  1.00 52.04 LIG-0.65  OA
ENDBRANCH 62 63
ENDBRANCH 58 62
ENDBRANCH 56 58
ENDBRANCH 50 54
ENDBRANCH 48 50
ENDBRANCH 45 46
BRANCH 45 66
ATOM     66  CB  GLU c   5      19.088  27.330  66.596  1.00 40.99 LIG 0.04  C 
BRANCH 66 67
ATOM     67  CG  GLU c   5      18.657  26.696  67.919  1.00 49.45 LIG 0.12  C 
BRANCH 67 68
ATOM     68  CD  GLU c   5      19.807  26.563  68.901  1.00 57.05 LIG 0.17  C 
ATOM     69 OE2  GLU c   5      19.609  26.853  70.094  1.00 42.85 LIG-0.65  OA
ATOM     70 OE1  GLU c   5      20.910  26.149  68.477  1.00 67.91 LIG-0.65  OA
ENDBRANCH 67 68
ENDBRANCH 66 67
ENDBRANCH 45 66
ENDBRANCH 43 45
ENDBRANCH 1 41
TORSDOF 33
ENDMDL
MODEL 3
USER: ADFR SOLUTION from run 44
USER: SCORE 24.473635 LL:  -6.793 LR: -19.880 RR:   0.000 FEB: -10.036
USER: RMSD 2.101676
USER: SEED 43
USER: STATUS no improvement in best in 3 clusters for 5 generations
USER: GENES 35
USER: genes 0 Translation |==|  0.48586 0.40714 0.30097
USER: genes 1 Rotation |==|  0.50643 0.39158 0.55200 0.98528
USER: genes 2 Torsion [C]-CA--N-[C] |==|  0.62222
USER: genes 3 Torsion [N]-C--CA-[N] |==|  0.88912
USER: genes 4 Torsion [C]-CA--N-[C] |==|  0.82397
USER: genes 5 Torsion [N]-C--CA-[N] |==|  0.37743
USER: genes 6 Torsion [C]-CA--CB-[CG] |==|  0.46726
USER: genes 7 Torsion [CA]-CB--CG-[CD] |==|  0.23674
USER: genes 8 Torsion [CB]-CG--CD-[CE] |==|  0.38497
USER: genes 9 Torsion [CG]-CD--CE-[NZ] |==|  0.68834
USER: genes 10 Torsion [CD]-CE--NZ-[HZ2] |==|  0.42680
USER: genes 11 Torsion [C]-CA--N-[C] |==|  0.79221
USER: genes 12 Torsion [N]-C--CA-[N] |==|  0.37867
USER: genes 13 Torsion [C]-CA--CB-[OG] |==|  0.51364
USER: genes 14 Torsion [CA]-CB--OG-[HG] |==|  0.22129
USER: genes 15 Torsion [C]-CA--N-[H2] |==|  0.57465
USER: genes 16 Torsion [C]-CA--CB-[CG] |==|  0.16233
USER: genes 17 Torsion [CA]-CB--CG-[SD] |==|  0.14724
USER: genes 18 Torsion [CB]-CG--SD-[CE] |==|  0.62682
USER: genes 19 Torsion [N]-CA--CB-[CG] |==|  0.67858
USER: genes 20 Torsion [CA]-CB--CG-[CD] |==|  0.10171
USER: genes 21 Torsion [CB]-CG--CD-[OE2] |==|  0.29352
USER: genes 22 Torsion [N]-CA--C-[N] |==|  0.09867
USER: genes 23 Torsion [C]-N--CA-[CB] |==|  0.36663
USER: genes 24 Torsion [N]-CA--C-[N] |==|  0.33234
USER: genes 25 Torsion [C]-N--CA-[C] |==|  0.80459
USER: genes 26 Torsion [N]-CA--CB-[CG2] |==|  0.16356
USER: genes 27 Torsion [N]-CA--C-[N] |==|  0.41459
USER: genes 28 Torsion [C]-N--CA-[C] |==|  0.64757
USER: genes 29 Torsion [N]-CA--C-[O] |==|  0.58397
USER: genes 30 Torsion [N]-CA--CB-[CG] |==|  0.87664
USER: genes 31 Torsion [CA]-CB--CG-[OD1] |==|  0.77432
USER: genes 32 Torsion [N]-CA--CB-[CG] |==|  0.41074
USER: genes 33 Torsion [CA]-CB--CG-[CD] |==|  0.55136
USER: genes 34 Torsion [CB]-CG--CD-[OE2] |==|  0.66884
ROOT
ATOM      1  CA  GLU c   4      19.643  23.217  65.869  1.00 41.78 LIG 0.18  C 
ENDROOT
BRANCH 1 2
ATOM      2  N   GLU c   4      19.357  22.614  67.153  1.00 36.98 LIG-0.35  N 
ATOM      3 H    GLU c   4      18.680  22.954  67.560  1.00 36.98 LIG 0.16  HD
ATOM      4  C   MET c   3      20.087  21.628  67.641  1.00 39.25 LIG 0.24  C 
ATOM      5 O    MET c   3      21.113  21.233  67.084  1.00 33.30 LIG-0.27  OA
BRANCH 4 6
ATOM      6  CA  MET c   3      19.576  20.966  68.938  1.00 43.32 LIG 0.18  C 
BRANCH 6 7
ATOM      7  N   MET c   3      19.009  21.868  69.958  1.00 44.06 LIG-0.35  N 
ATOM      8 H    MET c   3      18.175  21.715  70.105  1.00 44.06 LIG 0.16  HD
ATOM      9  C   LYS c   2      19.675  22.829  70.606  1.00 50.87 LIG 0.24  C 
ATOM     10 O    LYS c   2      20.836  23.181  70.334  1.00 41.81 LIG-0.27  OA
BRANCH 9 11
ATOM     11  CA  LYS c   2      18.883  23.515  71.743  1.00 52.27 LIG 0.18  C 
BRANCH 11 12
ATOM     12  CB  LYS c   2      18.325  24.871  71.256  1.00 56.87 LIG 0.04  C 
BRANCH 12 13
ATOM     13  CG  LYS c   2      17.305  25.495  72.186  1.00 55.18 LIG 0.00  C 
BRANCH 13 14
ATOM     14  CD  LYS c   2      17.999  26.293  73.269  1.00 56.62 LIG 0.03  C 
BRANCH 14 15
ATOM     15  CE  LYS c   2      17.285  27.597  73.533  1.00 60.10 LIG 0.23  C 
BRANCH 15 16
ATOM     16  NZ  LYS c   2      18.172  28.698  73.080  1.00 62.98 LIG-0.08  N 
ATOM     17 HZ2  LYS c   2      17.679  29.405  72.862  1.00 62.98 LIG 0.27  HD
ATOM     18 HZ3  LYS c   2      18.732  28.918  73.736  1.00 62.98 LIG 0.27  HD
ATOM     19 HZ1  LYS c   2      18.638  28.431  72.370  1.00 62.98 LIG 0.27  HD
ENDBRANCH 15 16
ENDBRANCH 14 15
ENDBRANCH 13 14
ENDBRANCH 12 13
ENDBRANCH 11 12
BRANCH 11 20
ATOM     20  N   LYS c   2      19.682  23.698  72.963  1.00 43.42 LIG-0.35  N 
ATOM     21 H    LYS c   2      19.934  24.511  73.086  1.00 43.42 LIG 0.16  HD
ATOM     22  C   SER c   1      19.994  22.709  73.805  1.00 43.78 LIG 0.25  C 
ATOM     23 O    SER c   1      19.704  21.525  73.631  1.00 50.72 LIG-0.27  OA
BRANCH 22 24
ATOM     24  CA  SER c   1      20.756  23.113  75.052  1.00 42.10 LIG 0.30  C 
BRANCH 24 25
ATOM     25  CB  SER c   1      22.240  22.761  74.880  1.00 37.65 LIG 0.21  C 
BRANCH 25 26
ATOM     26 OG   SER c   1      22.993  23.009  76.050  1.00 37.04 LIG-0.40  OA
ATOM     27 HG   SER c   1      22.881  22.378  76.594  1.00 37.04 LIG 0.21  HD
ENDBRANCH 25 26
ENDBRANCH 24 25
BRANCH 24 28
ATOM     28  N   SER c   1      20.134  22.376  76.198  1.00 43.63 LIG-0.06  N 
ATOM     29 H2   SER c   1      20.256  22.837  76.949  1.00 43.63 LIG 0.28  HD
ATOM     30 H3   SER c   1      19.261  22.278  76.049  1.00 43.63 LIG 0.28  HD
ATOM     31 H1   SER c   1      20.512  21.574  76.277  1.00 43.63 LIG 0.28  HD
ENDBRANCH 24 28
ENDBRANCH 22 24
ENDBRANCH 11 20
ENDBRANCH 9 11
ENDBRANCH 6 7
BRANCH 6 32
ATOM     32  CB  MET c   3      18.491  19.940  68.596  1.00 42.03 LIG 0.04  C 
BRANCH 32 33
ATOM     33  CG  MET c   3      18.881  18.824  67.662  1.00 44.17 LIG 0.08  C 
BRANCH 33 34
ATOM     34 SD   MET c   3      20.347  17.924  68.167  1.00 39.95 LIG-0.17  SA
ATOM     35  CE  MET c   3      21.100  17.919  66.560  1.00 32.62 LIG 0.09  C 
ENDBRANCH 33 34
ENDBRANCH 32 33
ENDBRANCH 6 32
ENDBRANCH 4 6
ENDBRANCH 1 2
BRANCH 1 36
ATOM     36  CB  GLU c   4      18.695  22.618  64.796  1.00 53.02 LIG 0.04  C 
BRANCH 36 37
ATOM     37  CG  GLU c   4      19.352  21.806  63.671  1.00 67.39 LIG 0.12  C 
BRANCH 37 38
ATOM     38  CD  GLU c   4      20.546  20.979  64.152  1.00 71.96 LIG 0.17  C 
ATOM     39 OE2  GLU c   4      20.422  19.731  64.280  1.00 61.28 LIG-0.65  OA
ATOM     40 OE1  GLU c   4      21.615  21.587  64.406  1.00 68.78 LIG-0.65  OA
ENDBRANCH 37 38
ENDBRANCH 36 37
ENDBRANCH 1 36
BRANCH 1 41
ATOM     41  C   GLU c   4      19.547  24.748  65.960  1.00 40.98 LIG 0.24  C 
ATOM     42 O    GLU c   4      19.122  25.391  64.998  1.00 47.04 LIG-0.27  OA
ATOM     43  N   GLU c   5      19.949  25.331  67.094  1.00 35.89 LIG-0.35  N 
ATOM     44 H    GLU c   5      20.144  24.896  67.809  1.00 35.89 LIG 0.16  HD
BRANCH 43 45
ATOM     45  CA  GLU c   5      20.096  26.796  67.221  1.00 35.53 LIG 0.18  C 
BRANCH 45 46
ATOM     46  C   GLU c   5      21.558  27.218  67.263  1.00 33.86 LIG 0.24  C 
ATOM     47 O    GLU c   5      22.281  26.861  68.183  1.00 26.34 LIG-0.27  OA
ATOM     48  N   VAL c   6      21.959  28.036  66.290  1.00 31.71 LIG-0.35  N 
ATOM     49 H    VAL c   6      21.464  28.262  65.624  1.00 31.71 LIG 0.16  HD
BRANCH 48 50
ATOM     50  CA  VAL c   6      23.306  28.636  66.270  1.00 31.16 LIG 0.18  C 
BRANCH 50 51
ATOM     51  CB  VAL c   6      23.698  29.154  64.847  1.00 25.00 LIG 0.01  C 
ATOM     52  CG1 VAL c   6      23.750  27.981  63.902  1.00 20.51 LIG 0.01  C 
ATOM     53  CG2 VAL c   6      22.739  30.213  64.284  1.00 20.94 LIG 0.01  C 
ENDBRANCH 50 51
BRANCH 50 54
ATOM     54  C   VAL c   6      23.459  29.695  67.377  1.00 33.11 LIG 0.24  C 
ATOM     55 O    VAL c   6      22.481  30.331  67.758  1.00 31.28 LIG-0.27  OA
ATOM     56  N   ASP c   7      24.688  29.853  67.896  1.00 31.84 LIG-0.34  N 
ATOM     57 H    ASP c   7      25.376  29.435  67.594  1.00 31.84 LIG 0.16  HD
BRANCH 56 58
ATOM     58  CA  ASP c   7      24.999  30.741  69.021  1.00 33.25 LIG 0.20  C 
BRANCH 58 59
ATOM     59  C   ASP c   7      26.137  31.727  68.722  1.00 36.36 LIG 0.20  C 
ATOM     60 OXT  ASP c   7      26.325  32.121  67.571  1.00 36.21 LIG-0.65  OA
ATOM     61 O    ASP c   7      26.910  32.156  69.609  1.00 30.31 LIG-0.65  OA
ENDBRANCH 58 59
BRANCH 58 62
ATOM     62  CB  ASP c   7      25.367  29.894  70.243  1.00 37.10 LIG 0.15  C 
BRANCH 62 63
ATOM     63  CG  ASP c   7      24.435  28.743  70.436  1.00 37.44 LIG 0.17  C 
ATOM     64 OD1  ASP c   7      23.339  28.935  70.996  1.00 43.19 LIG-0.65  OA
ATOM     65 OD2  ASP c   7      24.794  27.627  70.037  1.00 52.04 LIG-0.65  OA
ENDBRANCH 62 63
ENDBRANCH 58 62
ENDBRANCH 56 58
ENDBRANCH 50 54
ENDBRANCH 48 50
ENDBRANCH 45 46
BRANCH 45 66
ATOM     66  CB  GLU c   5      19.421  27.311  68.497  1.00 40.99 LIG 0.04  C 
BRANCH 66 67
ATOM     67  CG  GLU c   5      20.103  28.528  69.125  1.00 49.45 LIG 0.12  C 
BRANCH 67 68
ATOM     68  CD  GLU c   5      19.706  28.731  70.576  1.00 57.05 LIG 0.17  C 
ATOM     69 OE2  GLU c   5      19.137  29.790  70.896  1.00 42.85 LIG-0.65  OA
ATOM     70 OE1  GLU c   5      19.950  27.816  71.396  1.00 67.91 LIG-0.65  OA
ENDBRANCH 67 68
ENDBRANCH 66 67
ENDBRANCH 45 66
ENDBRANCH 43 45
ENDBRANCH 1 41
TORSDOF 33
ENDMDL
