MODEL 1
USER: ADFR SOLUTION from run 111
USER: SCORE 11.264893 LL:  -2.117 LR: -10.202 RR:   0.000 FEB:  -6.324
USER: RMSD 2.008009
USER: SEED 110
USER: STATUS no improvement in best 1 clusters for 5 generations
USER: GENES 15
USER: genes 0 Translation |==|  0.52610 0.52249 0.57319
USER: genes 1 Rotation |==|  0.38869 0.60573 0.39978 0.96517
USER: genes 2 Torsion [CB]-CA--N-[C] |==|  0.24791
USER: genes 3 Torsion [N]-C--CA-[N] |==|  0.38850
USER: genes 4 Torsion [C]-CA--CB-[CG] |==|  0.99931
USER: genes 5 Torsion [CA]-CB--CG-[CD] |==|  0.57216
USER: genes 6 Torsion [CB]-CG--CD-[OE1] |==|  0.92617
USER: genes 7 Torsion [C]-CA--N-[H3] |==|  0.96261
USER: genes 8 Torsion [N]-CA--C-[N] |==|  0.36841
USER: genes 9 Torsion [C]-N--CA-[CB] |==|  0.47156
USER: genes 10 Torsion [N]-CA--CB-[CG] |==|  0.80180
USER: genes 11 Torsion [CA]-CB--CG-[CD1] |==|  0.35463
USER: genes 12 Torsion [N]-CA--C-[O] |==|  0.46194
USER: genes 13 Torsion [N]-CA--CB-[CG] |==|  0.97251
USER: genes 14 Torsion [CA]-CB--CG-[OD2] |==|  0.25228
ROOT
ATOM      1  CA  ASP C 507       9.233  26.045   6.586  1.00 33.68 LIG 0.19  C 
ENDROOT
BRANCH 1 2
ATOM      2  N   ASP C 507       7.831  26.384   6.793  1.00 35.05 LIG-0.34  N 
ATOM      3  C   GLU C 506       7.299  27.509   6.331  1.00 36.98 LIG 0.25  C 
ATOM      4 O    GLU C 506       7.955  28.370   5.735  1.00 35.33 LIG-0.27  OA
ATOM      5 H    ASP C 507       7.389  25.794   7.236  1.00 35.05 LIG 0.16  HD
BRANCH 3 6
ATOM      6  CA  GLU C 506       5.817  27.718   6.636  1.00 38.62 LIG 0.28  C 
BRANCH 6 7
ATOM      7  CB  GLU C 506       4.949  27.294   5.449  1.00 41.41 LIG 0.05  C 
BRANCH 7 8
ATOM      8  CG  GLU C 506       5.739  26.778   4.262  1.00 54.63 LIG 0.12  C 
BRANCH 8 9
ATOM      9  CD  GLU C 506       5.012  26.951   2.943  1.00 71.07 LIG 0.17  C 
ATOM     10 OE1  GLU C 506       3.759  26.989   2.947  1.00 74.77 LIG-0.65  OA
ATOM     11 OE2  GLU C 506       5.699  27.065   1.903  1.00 73.38 LIG-0.65  OA
ENDBRANCH 8 9
ENDBRANCH 7 8
ENDBRANCH 6 7
BRANCH 6 12
ATOM     12  N   GLU C 506       5.558  29.140   6.991  1.00 38.98 LIG-0.07  N 
ATOM     13 H3   GLU C 506       6.331  29.552   7.148  1.00 38.98 LIG 0.28  HD
ATOM     14 H2   GLU C 506       5.050  29.177   7.720  1.00 38.98 LIG 0.28  HD
ATOM     15 H1   GLU C 506       5.140  29.543   6.317  1.00 38.98 LIG 0.28  HD
ENDBRANCH 6 12
ENDBRANCH 3 6
ENDBRANCH 1 2
BRANCH 1 16
ATOM     16  C   ASP C 507       9.364  24.535   6.489  1.00 33.47 LIG 0.24  C 
ATOM     17 O    ASP C 507       8.779  23.798   7.287  1.00 34.83 LIG-0.27  OA
ATOM     18  N   LEU C 508      10.097  24.087   5.474  1.00 31.65 LIG-0.34  N 
ATOM     19 H    LEU C 508      10.498  24.601   4.911  1.00 31.65 LIG 0.16  HD
BRANCH 18 20
ATOM     20  CA  LEU C 508      10.290  22.667   5.224  1.00 32.20 LIG 0.18  C 
BRANCH 20 21
ATOM     21  CB  LEU C 508      10.953  22.483   3.866  1.00 32.28 LIG 0.04  C 
BRANCH 21 22
ATOM     22  CG  LEU C 508       9.952  22.817   2.766  1.00 33.09 LIG-0.02  C 
ATOM     23  CD1 LEU C 508      10.537  23.816   1.814  1.00 32.61 LIG 0.01  C 
ATOM     24  CD2 LEU C 508       9.508  21.537   2.072  1.00 34.13 LIG 0.01  C 
ENDBRANCH 21 22
ENDBRANCH 20 21
BRANCH 20 25
ATOM     25  C   LEU C 508      11.106  21.977   6.302  1.00 33.63 LIG 0.20  C 
ATOM     26 O    LEU C 508      11.111  20.728   6.327  0.50 32.81 LIG-0.65  OA
ATOM     27 OXT  LEU C 508      11.730  22.692   7.112  0.50 35.17 LIG-0.65  OA
ENDBRANCH 20 25
ENDBRANCH 18 20
ENDBRANCH 1 16
BRANCH 1 28
ATOM     28  CB  ASP C 507      10.074  26.606   7.730  1.00 31.02 LIG 0.15  C 
BRANCH 28 29
ATOM     29  CG  ASP C 507       9.277  27.544   8.613  1.00 34.22 LIG 0.17  C 
ATOM     30 OD2  ASP C 507       8.673  27.085   9.608  1.00 32.29 LIG-0.65  OA
ATOM     31 OD1  ASP C 507       9.222  28.742   8.279  1.00 33.73 LIG-0.65  OA
ENDBRANCH 28 29
ENDBRANCH 1 28
TORSDOF 13
ENDMDL
MODEL 2
USER: ADFR SOLUTION from run 44
USER: SCORE 11.857491 LL:  -2.771 LR: -10.168 RR:   0.000 FEB:  -6.291
USER: RMSD 3.166998
USER: SEED 43
USER: STATUS no improvement in best 1 clusters for 5 generations
USER: GENES 15
USER: genes 0 Translation |==|  0.52271 0.52178 0.57254
USER: genes 1 Rotation |==|  0.39547 0.60526 0.40755 0.96845
USER: genes 2 Torsion [CB]-CA--N-[C] |==|  0.25267
USER: genes 3 Torsion [N]-C--CA-[N] |==|  0.39042
USER: genes 4 Torsion [C]-CA--CB-[CG] |==|  0.39589
USER: genes 5 Torsion [CA]-CB--CG-[CD] |==|  0.08318
USER: genes 6 Torsion [CB]-CG--CD-[OE1] |==|  0.14065
USER: genes 7 Torsion [C]-CA--N-[H3] |==|  0.17371
USER: genes 8 Torsion [N]-CA--C-[N] |==|  0.35771
USER: genes 9 Torsion [C]-N--CA-[CB] |==|  0.45746
USER: genes 10 Torsion [N]-CA--CB-[CG] |==|  0.71626
USER: genes 11 Torsion [CA]-CB--CG-[CD1] |==|  0.24181
USER: genes 12 Torsion [N]-CA--C-[O] |==|  0.40715
USER: genes 13 Torsion [N]-CA--CB-[CG] |==|  0.95778
USER: genes 14 Torsion [CA]-CB--CG-[OD2] |==|  0.25419
ROOT
ATOM      1  CA  ASP C 507       9.131  26.023   6.566  1.00 33.68 LIG 0.19  C 
ENDROOT
BRANCH 1 2
ATOM      2  N   ASP C 507       7.720  26.318   6.780  1.00 35.05 LIG-0.34  N 
ATOM      3  C   GLU C 506       7.152  27.429   6.326  1.00 36.98 LIG 0.25  C 
ATOM      4 O    GLU C 506       7.779  28.313   5.732  1.00 35.33 LIG-0.27  OA
ATOM      5 H    ASP C 507       7.298  25.713   7.221  1.00 35.05 LIG 0.16  HD
BRANCH 3 6
ATOM      6  CA  GLU C 506       5.666  27.592   6.637  1.00 38.62 LIG 0.28  C 
BRANCH 6 7
ATOM      7  CB  GLU C 506       4.807  27.131   5.457  1.00 41.41 LIG 0.05  C 
BRANCH 7 8
ATOM      8  CG  GLU C 506       3.533  26.417   5.863  1.00 54.63 LIG 0.12  C 
BRANCH 8 9
ATOM      9  CD  GLU C 506       2.985  26.891   7.195  1.00 71.07 LIG 0.17  C 
ATOM     10 OE1  GLU C 506       2.837  28.121   7.382  1.00 74.77 LIG-0.65  OA
ATOM     11 OE2  GLU C 506       2.688  26.025   8.049  1.00 73.38 LIG-0.65  OA
ENDBRANCH 8 9
ENDBRANCH 7 8
ENDBRANCH 6 7
BRANCH 6 12
ATOM     12  N   GLU C 506       5.362  29.006   6.984  1.00 38.98 LIG-0.07  N 
ATOM     13 H3   GLU C 506       5.540  29.529   6.286  1.00 38.98 LIG 0.28  HD
ATOM     14 H2   GLU C 506       5.864  29.257   7.676  1.00 38.98 LIG 0.28  HD
ATOM     15 H1   GLU C 506       4.502  29.081   7.199  1.00 38.98 LIG 0.28  HD
ENDBRANCH 6 12
ENDBRANCH 3 6
ENDBRANCH 1 2
BRANCH 1 16
ATOM     16  C   ASP C 507       9.302  24.522   6.418  1.00 33.47 LIG 0.24  C 
ATOM     17 O    ASP C 507       8.792  23.746   7.230  1.00 34.83 LIG-0.27  OA
ATOM     18  N   LEU C 508       9.982  24.125   5.346  1.00 31.65 LIG-0.34  N 
ATOM     19 H    LEU C 508      10.330  24.667   4.775  1.00 31.65 LIG 0.16  HD
BRANCH 18 20
ATOM     20  CA  LEU C 508      10.202  22.719   5.044  1.00 32.20 LIG 0.18  C 
BRANCH 20 21
ATOM     21  CB  LEU C 508      10.663  22.584   3.600  1.00 32.28 LIG 0.04  C 
BRANCH 21 22
ATOM     22  CG  LEU C 508       9.494  22.119   2.738  1.00 33.09 LIG-0.02  C 
ATOM     23  CD1 LEU C 508       8.696  23.296   2.263  1.00 32.61 LIG 0.01  C 
ATOM     24  CD2 LEU C 508      10.011  21.261   1.592  1.00 34.13 LIG 0.01  C 
ENDBRANCH 21 22
ENDBRANCH 20 21
BRANCH 20 25
ATOM     25  C   LEU C 508      11.201  22.058   5.976  1.00 33.63 LIG 0.20  C 
ATOM     26 O    LEU C 508      11.029  20.855   6.265  0.50 32.81 LIG-0.65  OA
ATOM     27 OXT  LEU C 508      12.145  22.750   6.409  0.50 35.17 LIG-0.65  OA
ENDBRANCH 20 25
ENDBRANCH 18 20
ENDBRANCH 1 16
BRANCH 1 28
ATOM     28  CB  ASP C 507       9.954  26.567   7.732  1.00 31.02 LIG 0.15  C 
BRANCH 28 29
ATOM     29  CG  ASP C 507       9.168  27.553   8.570  1.00 34.22 LIG 0.17  C 
ATOM     30 OD2  ASP C 507       8.518  27.140   9.557  1.00 32.29 LIG-0.65  OA
ATOM     31 OD1  ASP C 507       9.167  28.745   8.209  1.00 33.73 LIG-0.65  OA
ENDBRANCH 28 29
ENDBRANCH 1 28
TORSDOF 13
ENDMDL
MODEL 3
USER: ADFR SOLUTION from run 45
USER: SCORE 10.329122 LL:  -2.772 LR:  -9.261 RR:   0.000 FEB:  -5.383
USER: RMSD 1.981502
USER: SEED 44
USER: STATUS no improvement in best 2 clusters for 5 generations
USER: GENES 15
USER: genes 0 Translation |==|  0.52314 0.51455 0.55773
USER: genes 1 Rotation |==|  0.41953 0.44545 0.41404 0.98287
USER: genes 2 Torsion [CB]-CA--N-[C] |==|  0.30571
USER: genes 3 Torsion [N]-C--CA-[N] |==|  0.41636
USER: genes 4 Torsion [C]-CA--CB-[CG] |==|  0.83374
USER: genes 5 Torsion [CA]-CB--CG-[CD] |==|  0.76959
USER: genes 6 Torsion [CB]-CG--CD-[OE1] |==|  0.98904
USER: genes 7 Torsion [C]-CA--N-[H3] |==|  0.01441
USER: genes 8 Torsion [N]-CA--C-[N] |==|  0.19130
USER: genes 9 Torsion [C]-N--CA-[CB] |==|  0.53606
USER: genes 10 Torsion [N]-CA--CB-[CG] |==|  0.83309
USER: genes 11 Torsion [CA]-CB--CG-[CD1] |==|  0.31016
USER: genes 12 Torsion [N]-CA--C-[O] |==|  0.87706
USER: genes 13 Torsion [N]-CA--CB-[CG] |==|  0.81668
USER: genes 14 Torsion [CA]-CB--CG-[OD2] |==|  0.10466
ROOT
ATOM      1  CA  ASP C 507       9.144  25.806   6.122  1.00 33.68 LIG 0.19  C 
ENDROOT
BRANCH 1 2
ATOM      2  N   ASP C 507       7.856  25.887   5.445  1.00 35.05 LIG-0.34  N 
ATOM      3  C   GLU C 506       7.648  26.696   4.414  1.00 36.98 LIG 0.25  C 
ATOM      4 O    GLU C 506       8.508  27.470   3.979  1.00 35.33 LIG-0.27  OA
ATOM      5 H    ASP C 507       7.254  25.369   5.774  1.00 35.05 LIG 0.16  HD
BRANCH 3 6
ATOM      6  CA  GLU C 506       6.241  26.667   3.818  1.00 38.62 LIG 0.28  C 
BRANCH 6 7
ATOM      7  CB  GLU C 506       6.120  25.571   2.757  1.00 41.41 LIG 0.05  C 
BRANCH 7 8
ATOM      8  CG  GLU C 506       7.076  25.732   1.592  1.00 54.63 LIG 0.12  C 
BRANCH 8 9
ATOM      9  CD  GLU C 506       6.569  26.693   0.535  1.00 71.07 LIG 0.17  C 
ATOM     10 OE1  GLU C 506       5.425  27.187   0.669  1.00 74.77 LIG-0.65  OA
ATOM     11 OE2  GLU C 506       7.326  26.964  -0.425  1.00 73.38 LIG-0.65  OA
ENDBRANCH 8 9
ENDBRANCH 7 8
ENDBRANCH 6 7
BRANCH 6 12
ATOM     12  N   GLU C 506       5.897  27.995   3.241  1.00 38.98 LIG-0.07  N 
ATOM     13 H3   GLU C 506       6.605  28.531   3.287  1.00 38.98 LIG 0.28  HD
ATOM     14 H2   GLU C 506       5.225  28.354   3.701  1.00 38.98 LIG 0.28  HD
ATOM     15 H1   GLU C 506       5.655  27.895   2.391  1.00 38.98 LIG 0.28  HD
ENDBRANCH 6 12
ENDBRANCH 3 6
ENDBRANCH 1 2
BRANCH 1 16
ATOM     16  C   ASP C 507       9.573  24.351   6.187  1.00 33.47 LIG 0.24  C 
ATOM     17 O    ASP C 507       9.569  23.739   7.258  1.00 34.83 LIG-0.27  OA
ATOM     18  N   LEU C 508       9.896  23.796   5.023  1.00 31.65 LIG-0.34  N 
ATOM     19 H    LEU C 508       9.890  24.220   4.274  1.00 31.65 LIG 0.16  HD
BRANCH 18 20
ATOM     20  CA  LEU C 508      10.294  22.401   4.913  1.00 32.20 LIG 0.18  C 
BRANCH 20 21
ATOM     21  CB  LEU C 508      10.900  22.161   3.537  1.00 32.28 LIG 0.04  C 
BRANCH 21 22
ATOM     22  CG  LEU C 508       9.865  22.483   2.466  1.00 33.09 LIG-0.02  C 
ATOM     23  CD1 LEU C 508      10.271  23.705   1.699  1.00 32.61 LIG 0.01  C 
ATOM     24  CD2 LEU C 508       9.659  21.270   1.570  1.00 34.13 LIG 0.01  C 
ENDBRANCH 21 22
ENDBRANCH 20 21
BRANCH 20 25
ATOM     25  C   LEU C 508      11.268  21.972   5.996  1.00 33.63 LIG 0.20  C 
ATOM     26 O    LEU C 508      12.216  22.738   6.271  0.50 32.81 LIG-0.65  OA
ATOM     27 OXT  LEU C 508      11.074  20.875   6.557  0.50 35.17 LIG-0.65  OA
ENDBRANCH 20 25
ENDBRANCH 18 20
ENDBRANCH 1 16
BRANCH 1 28
ATOM     28  CB  ASP C 507       9.034  26.420   7.516  1.00 31.02 LIG 0.15  C 
BRANCH 28 29
ATOM     29  CG  ASP C 507       8.766  27.910   7.460  1.00 34.22 LIG 0.17  C 
ATOM     30 OD2  ASP C 507       8.005  28.364   6.575  1.00 32.29 LIG-0.65  OA
ATOM     31 OD1  ASP C 507       9.356  28.633   8.284  1.00 33.73 LIG-0.65  OA
ENDBRANCH 28 29
ENDBRANCH 1 28
TORSDOF 13
ENDMDL
