MODEL 1
USER: ADFR SOLUTION from run 29
USER: SCORE 9.911508 LL:  -1.614 LR:  -9.087 RR:   0.000 FEB:  -6.402
USER: RMSD 2.034953
USER: SEED 28
USER: STATUS 1 or 2 clusters left
USER: GENES 11
USER: genes 0 Translation |==|  0.44480 0.47084 0.43030
USER: genes 1 Rotation |==|  0.49605 0.48525 0.47713 0.99924
USER: genes 2 Torsion [C]-N--CA-[CB] |==|  0.48333
USER: genes 3 Torsion [N]-CA--C-[N] |==|  0.44888
USER: genes 4 Torsion [C]-N--CA-[C] |==|  0.43236
USER: genes 5 Torsion [N]-CA--C-[N] |==|  0.46704
USER: genes 6 Torsion [N]-CA--C-[O] |==|  0.89362
USER: genes 7 Torsion [N]-C--CA-[N] |==|  0.27158
USER: genes 8 Torsion [C]-CA--CB-[CG] |==|  0.13965
USER: genes 9 Torsion [CA]-CB--CG-[CD2] |==|  0.77964
USER: genes 10 Torsion [C]-CA--N-[H3] |==|  0.07990
ROOT
ATOM      1  C   HIS D 487      25.014  48.675  41.009  1.00 20.76 LIG 0.25  C 
ATOM      2 O    HIS D 487      26.227  48.857  41.087  1.00 23.11 LIG-0.27  OA
ATOM      3  N   ALA D 488      24.120  49.612  41.306  1.00 15.78 LIG-0.35  N 
ATOM      4 H    ALA D 488      23.271  49.511  41.219  1.00 15.78 LIG 0.16  HD
ENDROOT
BRANCH 3 5
ATOM      5  CA  ALA D 488      24.522  50.916  41.814  1.00 17.18 LIG 0.17  C 
ATOM      6  CB  ALA D 488      23.315  51.831  41.926  1.00 18.90 LIG 0.04  C 
BRANCH 5 7
ATOM      7  C   ALA D 488      25.199  50.782  43.168  1.00 23.02 LIG 0.24  C 
ATOM      8 O    ALA D 488      25.011  49.785  43.872  1.00 24.91 LIG-0.27  OA
ATOM      9  N   GLY D 489      25.933  51.820  43.552  1.00 25.69 LIG-0.35  N 
ATOM     10 H    GLY D 489      26.021  52.545  43.098  1.00 25.69 LIG 0.16  HD
BRANCH 9 11
ATOM     11  CA  GLY D 489      26.663  51.798  44.806  1.00 31.31 LIG 0.23  C 
BRANCH 11 12
ATOM     12  C   GLY D 489      27.847  52.744  44.788  1.00 31.81 LIG 0.24  C 
ATOM     13 O    GLY D 489      28.157  53.324  43.748  1.00 37.54 LIG-0.27  OA
ATOM     14  N   PRO D 490      28.466  53.011  45.948  1.00 32.04 LIG-0.34  N 
ATOM     15  CD  PRO D 490      27.867  53.021  47.293  1.00 30.24 LIG 0.13  C 
ATOM     16  CA  PRO D 490      29.815  53.585  45.950  1.00 28.96 LIG 0.17  C 
ATOM     17  CG  PRO D 490      29.041  53.336  48.180  1.00 27.78 LIG 0.02  C 
ATOM     18  CB  PRO D 490      29.945  54.171  47.355  1.00 26.97 LIG 0.04  C 
BRANCH 16 19
ATOM     19  C   PRO D 490      30.900  52.549  45.658  1.00 23.69 LIG 0.22  C 
ATOM     20 O    PRO D 490      30.826  51.409  46.105  1.00 20.56 LIG-0.29  OA
ENDBRANCH 16 19
ENDBRANCH 11 12
ENDBRANCH 9 11
ENDBRANCH 5 7
ENDBRANCH 3 5
BRANCH 1 21
ATOM     21  CA  HIS D 487      24.464  47.350  40.493  1.00 19.79 LIG 0.28  C 
BRANCH 21 22
ATOM     22  CB  HIS D 487      25.274  46.205  41.086  1.00 13.21 LIG 0.10  C 
BRANCH 22 23
ATOM     23  CG  HIS D 487      25.430  46.284  42.570  1.00  6.04 LIG 0.03  A 
ATOM     24  CD2 HIS D 487      26.261  47.023  43.339  1.00  9.79 LIG 0.14  A 
ATOM     25 NE2  HIS D 487      25.976  46.721  44.649  1.00 21.50 LIG-0.25  NA
ATOM     26  CE1 HIS D 487      25.004  45.828  44.682  1.00 16.19 LIG 0.21  A 
ATOM     27  ND1 HIS D 487      24.654  45.550  43.440  1.00 14.18 LIG-0.35  N 
ATOM     28 HD1  HIS D 487      24.037  44.996  43.210  1.00 14.18 LIG 0.17  HD
ENDBRANCH 22 23
ENDBRANCH 21 22
BRANCH 21 29
ATOM     29  N   HIS D 487      24.518  47.306  39.038  1.00 20.90 LIG-0.07  N 
ATOM     30 H1   HIS D 487      24.641  46.466  38.770  1.00 20.90 LIG 0.28  HD
ATOM     31 H3   HIS D 487      25.192  47.810  38.750  1.00 20.90 LIG 0.28  HD
ATOM     32 H2   HIS D 487      23.753  47.614  38.702  1.00 20.90 LIG 0.28  HD
ENDBRANCH 21 29
ENDBRANCH 1 21
TORSDOF 9
ENDMDL
MODEL 2
USER: ADFR SOLUTION from run 38
USER: SCORE 9.667937 LL:  -1.464 LR:  -8.801 RR:   0.000 FEB:  -6.116
USER: RMSD 0.887170
USER: SEED 37
USER: STATUS no improvement in best 3 clusters for 5 generations
USER: GENES 11
USER: genes 0 Translation |==|  0.44382 0.47201 0.43226
USER: genes 1 Rotation |==|  0.49608 0.44471 0.47332 0.99620
USER: genes 2 Torsion [C]-N--CA-[CB] |==|  0.51111
USER: genes 3 Torsion [N]-CA--C-[N] |==|  0.42760
USER: genes 4 Torsion [C]-N--CA-[C] |==|  0.44745
USER: genes 5 Torsion [N]-CA--C-[N] |==|  0.46355
USER: genes 6 Torsion [N]-CA--C-[O] |==|  0.88736
USER: genes 7 Torsion [N]-C--CA-[N] |==|  0.31287
USER: genes 8 Torsion [C]-CA--CB-[CG] |==|  0.57593
USER: genes 9 Torsion [CA]-CB--CG-[CD2] |==|  0.31543
USER: genes 10 Torsion [C]-CA--N-[H3] |==|  0.20014
ROOT
ATOM      1  C   HIS D 487      24.985  48.710  41.068  1.00 20.76 LIG 0.25  C 
ATOM      2 O    HIS D 487      26.172  48.875  41.340  1.00 23.11 LIG-0.27  OA
ATOM      3  N   ALA D 488      24.069  49.662  41.211  1.00 15.78 LIG-0.35  N 
ATOM      4 H    ALA D 488      23.243  49.571  40.988  1.00 15.78 LIG 0.16  HD
ENDROOT
BRANCH 3 5
ATOM      5  CA  ALA D 488      24.402  50.964  41.770  1.00 17.18 LIG 0.17  C 
ATOM      6  CB  ALA D 488      23.151  51.813  41.907  1.00 18.90 LIG 0.04  C 
BRANCH 5 7
ATOM      7  C   ALA D 488      25.078  50.814  43.123  1.00 23.02 LIG 0.24  C 
ATOM      8 O    ALA D 488      24.826  49.848  43.850  1.00 24.91 LIG-0.27  OA
ATOM      9  N   GLY D 489      25.885  51.805  43.479  1.00 25.69 LIG-0.35  N 
ATOM     10 H    GLY D 489      26.020  52.513  43.008  1.00 25.69 LIG 0.16  HD
BRANCH 9 11
ATOM     11  CA  GLY D 489      26.620  51.760  44.730  1.00 31.31 LIG 0.23  C 
BRANCH 11 12
ATOM     12  C   GLY D 489      27.793  52.722  44.731  1.00 31.81 LIG 0.24  C 
ATOM     13 O    GLY D 489      28.105  53.315  43.699  1.00 37.54 LIG-0.27  OA
ATOM     14  N   PRO D 490      28.397  52.986  45.899  1.00 32.04 LIG-0.34  N 
ATOM     15  CD  PRO D 490      27.785  52.978  47.238  1.00 30.24 LIG 0.13  C 
ATOM     16  CA  PRO D 490      29.739  53.577  45.919  1.00 28.96 LIG 0.17  C 
ATOM     17  CG  PRO D 490      28.946  53.300  48.140  1.00 27.78 LIG 0.02  C 
ATOM     18  CB  PRO D 490      29.847  54.153  47.330  1.00 26.97 LIG 0.04  C 
BRANCH 16 19
ATOM     19  C   PRO D 490      30.839  52.557  45.629  1.00 23.69 LIG 0.22  C 
ATOM     20 O    PRO D 490      30.795  51.425  46.100  1.00 20.56 LIG-0.29  OA
ENDBRANCH 16 19
ENDBRANCH 11 12
ENDBRANCH 9 11
ENDBRANCH 5 7
ENDBRANCH 3 5
BRANCH 1 21
ATOM     21  CA  HIS D 487      24.506  47.389  40.478  1.00 19.79 LIG 0.28  C 
BRANCH 21 22
ATOM     22  CB  HIS D 487      24.888  46.251  41.415  1.00 13.21 LIG 0.10  C 
BRANCH 22 23
ATOM     23  CG  HIS D 487      25.075  44.940  40.723  1.00  6.04 LIG 0.03  A 
ATOM     24  CD2 HIS D 487      26.179  44.181  40.538  1.00  9.79 LIG 0.14  A 
ATOM     25 NE2  HIS D 487      25.789  43.060  39.846  1.00 21.50 LIG-0.25  NA
ATOM     26  CE1 HIS D 487      24.491  43.128  39.615  1.00 16.19 LIG 0.21  A 
ATOM     27  ND1 HIS D 487      24.035  44.252  40.137  1.00 14.18 LIG-0.35  N 
ATOM     28 HD1  HIS D 487      23.216  44.514  40.115  1.00 14.18 LIG 0.17  HD
ENDBRANCH 22 23
ENDBRANCH 21 22
BRANCH 21 29
ATOM     29  N   HIS D 487      25.090  47.175  39.160  1.00 20.90 LIG-0.07  N 
ATOM     30 H1   HIS D 487      24.675  46.500  38.756  1.00 20.90 LIG 0.28  HD
ATOM     31 H3   HIS D 487      25.955  46.982  39.246  1.00 20.90 LIG 0.28  HD
ATOM     32 H2   HIS D 487      24.999  47.914  38.671  1.00 20.90 LIG 0.28  HD
ENDBRANCH 21 29
ENDBRANCH 1 21
TORSDOF 9
ENDMDL
MODEL 3
USER: ADFR SOLUTION from run 74
USER: SCORE 8.640622 LL:  -1.554 LR:  -7.845 RR:   0.000 FEB:  -5.160
USER: RMSD 2.852013
USER: SEED 73
USER: STATUS no improvement in best 2 clusters for 5 generations
USER: GENES 11
USER: genes 0 Translation |==|  0.46634 0.46874 0.43532
USER: genes 1 Rotation |==|  0.49516 0.46600 0.52514 0.99819
USER: genes 2 Torsion [C]-N--CA-[CB] |==|  0.48950
USER: genes 3 Torsion [N]-CA--C-[N] |==|  0.42288
USER: genes 4 Torsion [C]-N--CA-[C] |==|  0.41112
USER: genes 5 Torsion [N]-CA--C-[N] |==|  0.47913
USER: genes 6 Torsion [N]-CA--C-[O] |==|  0.89111
USER: genes 7 Torsion [N]-C--CA-[N] |==|  0.98509
USER: genes 8 Torsion [C]-CA--CB-[CG] |==|  0.80621
USER: genes 9 Torsion [CA]-CB--CG-[CD2] |==|  0.24477
USER: genes 10 Torsion [C]-CA--N-[H3] |==|  0.37191
ROOT
ATOM      1  C   HIS D 487      25.660  48.612  41.160  1.00 20.76 LIG 0.25  C 
ATOM      2 O    HIS D 487      26.807  49.023  41.324  1.00 23.11 LIG-0.27  OA
ATOM      3  N   ALA D 488      24.584  49.362  41.371  1.00 15.78 LIG-0.35  N 
ATOM      4 H    ALA D 488      23.779  49.099  41.224  1.00 15.78 LIG 0.16  HD
ENDROOT
BRANCH 3 5
ATOM      5  CA  ALA D 488      24.690  50.721  41.882  1.00 17.18 LIG 0.17  C 
ATOM      6  CB  ALA D 488      23.319  51.370  41.938  1.00 18.90 LIG 0.04  C 
BRANCH 5 7
ATOM      7  C   ALA D 488      25.325  50.732  43.262  1.00 23.02 LIG 0.24  C 
ATOM      8 O    ALA D 488      25.170  49.782  44.035  1.00 24.91 LIG-0.27  OA
ATOM      9  N   GLY D 489      25.985  51.838  43.586  1.00 25.69 LIG-0.35  N 
ATOM     10 H    GLY D 489      26.046  52.530  43.080  1.00 25.69 LIG 0.16  HD
BRANCH 9 11
ATOM     11  CA  GLY D 489      26.669  51.954  44.861  1.00 31.31 LIG 0.23  C 
BRANCH 11 12
ATOM     12  C   GLY D 489      27.908  52.823  44.759  1.00 31.81 LIG 0.24  C 
ATOM     13 O    GLY D 489      28.241  53.297  43.673  1.00 37.54 LIG-0.27  OA
ATOM     14  N   PRO D 490      28.554  53.144  45.890  1.00 32.04 LIG-0.34  N 
ATOM     15  CD  PRO D 490      27.971  53.300  47.233  1.00 30.24 LIG 0.13  C 
ATOM     16  CA  PRO D 490      29.936  53.633  45.838  1.00 28.96 LIG 0.17  C 
ATOM     17  CG  PRO D 490      29.171  53.613  48.085  1.00 27.78 LIG 0.02  C 
ATOM     18  CB  PRO D 490      30.115  54.322  47.190  1.00 26.97 LIG 0.04  C 
BRANCH 16 19
ATOM     19  C   PRO D 490      30.953  52.513  45.625  1.00 23.69 LIG 0.22  C 
ATOM     20 O    PRO D 490      30.823  51.425  46.177  1.00 20.56 LIG-0.29  OA
ENDBRANCH 16 19
ENDBRANCH 11 12
ENDBRANCH 9 11
ENDBRANCH 5 7
ENDBRANCH 3 5
BRANCH 1 21
ATOM     21  CA  HIS D 487      25.414  47.204  40.632  1.00 19.79 LIG 0.28  C 
BRANCH 21 22
ATOM     22  CB  HIS D 487      26.026  47.072  39.244  1.00 13.21 LIG 0.10  C 
BRANCH 22 23
ATOM     23  CG  HIS D 487      25.311  47.859  38.194  1.00  6.04 LIG 0.03  A 
ATOM     24  CD2 HIS D 487      25.464  49.138  37.782  1.00  9.79 LIG 0.14  A 
ATOM     25 NE2  HIS D 487      24.556  49.350  36.773  1.00 21.50 LIG-0.25  NA
ATOM     26  CE1 HIS D 487      23.870  48.241  36.573  1.00 16.19 LIG 0.21  A 
ATOM     27  ND1 HIS D 487      24.308  47.324  37.416  1.00 14.18 LIG-0.35  N 
ATOM     28 HD1  HIS D 487      24.013  46.517  37.471  1.00 14.18 LIG 0.17  HD
ENDBRANCH 22 23
ENDBRANCH 21 22
BRANCH 21 29
ATOM     29  N   HIS D 487      23.985  46.919  40.582  1.00 20.90 LIG-0.07  N 
ATOM     30 H1   HIS D 487      23.770  46.361  41.241  1.00 20.90 LIG 0.28  HD
ATOM     31 H3   HIS D 487      23.784  46.545  39.799  1.00 20.90 LIG 0.28  HD
ATOM     32 H2   HIS D 487      23.527  47.677  40.674  1.00 20.90 LIG 0.28  HD
ENDBRANCH 21 29
ENDBRANCH 1 21
TORSDOF 9
ENDMDL
