MODEL 1
USER: ADFR SOLUTION from run 131
USER: SCORE 21.836079 LL:  -1.248 LR: -20.659 RR:   0.000 FEB: -15.289
USER: RMSD 0.966911
USER: SEED 130
USER: STATUS 1 or 2 clusters left
USER: GENES 20
USER: genes 0 Translation |==|  0.53095 0.55749 0.56302
USER: genes 1 Rotation |==|  0.52093 0.51953 0.51324 0.99900
USER: genes 2 Torsion [N]-CA--C-[N] |==|  0.39501
USER: genes 3 Torsion [C]-N--CA-[CB] |==|  0.29510
USER: genes 4 Torsion [N]-CA--CB-[CG] |==|  0.64484
USER: genes 5 Torsion [CA]-CB--CG-[CD] |==|  0.70596
USER: genes 6 Torsion [CB]-CG--CD-[CE] |==|  0.54844
USER: genes 7 Torsion [CG]-CD--CE-[NZ] |==|  0.94617
USER: genes 8 Torsion [CD]-CE--NZ-[HZ2] |==|  0.85762
USER: genes 9 Torsion [N]-CA--C-[OXT] |==|  0.13954
USER: genes 10 Torsion [C]-CA--CB-[SG] |==|  0.22145
USER: genes 11 Torsion [CA]-CB--SG-[HG] |==|  0.99726
USER: genes 12 Torsion [C]-CA--N-[C] |==|  0.76558
USER: genes 13 Torsion [N]-C--CA-[N] |==|  0.39088
USER: genes 14 Torsion [C]-CA--N-[H2] |==|  0.79001
USER: genes 15 Torsion [C]-CA--CB-[CG] |==|  0.82241
USER: genes 16 Torsion [CA]-CB--CG-[CD] |==|  0.51961
USER: genes 17 Torsion [CB]-CG--CD-[CE] |==|  0.17936
USER: genes 18 Torsion [CG]-CD--CE-[NZ] |==|  0.14392
USER: genes 19 Torsion [CD]-CE--NZ-[HZ3] |==|  0.23989
ROOT
ATOM      1  CA  CYS B   2       3.679  20.115  15.931  1.00 13.05 LIG 0.18  C 
ENDROOT
BRANCH 1 2
ATOM      2  C   CYS B   2       2.315  19.987  15.273  1.00 11.99 LIG 0.24  C 
ATOM      3  N   LYS B   3       1.297  19.693  16.088  1.00 12.79 LIG-0.34  N 
ATOM      4 H    LYS B   3       1.371  19.559  16.934  1.00 12.79 LIG 0.16  HD
ATOM      5 O    CYS B   2       2.176  20.283  14.082  1.00 13.18 LIG-0.27  OA
BRANCH 3 6
ATOM      6  CA  LYS B   3      -0.048  19.580  15.564  1.00 17.07 LIG 0.18  C 
BRANCH 6 7
ATOM      7  CB  LYS B   3      -0.671  18.193  15.425  1.00 17.68 LIG 0.04  C 
BRANCH 7 8
ATOM      8  CG  LYS B   3      -1.184  18.074  13.969  1.00 18.86 LIG 0.00  C 
BRANCH 8 9
ATOM      9  CD  LYS B   3      -2.677  18.170  13.857  1.00 20.79 LIG 0.03  C 
BRANCH 9 10
ATOM     10  CE  LYS B   3      -3.253  17.648  12.533  1.00 22.05 LIG 0.23  C 
BRANCH 10 11
ATOM     11  NZ  LYS B   3      -2.183  17.603  11.501  1.00 26.11 LIG-0.08  N 
ATOM     12 HZ2  LYS B   3      -1.770  18.390  11.466  1.00 26.11 LIG 0.27  HD
ATOM     13 HZ1  LYS B   3      -2.545  17.422  10.707  1.00 26.11 LIG 0.27  HD
ATOM     14 HZ3  LYS B   3      -1.596  16.968  11.710  1.00 26.11 LIG 0.27  HD
ENDBRANCH 10 11
ENDBRANCH 9 10
ENDBRANCH 8 9
ENDBRANCH 7 8
ENDBRANCH 6 7
BRANCH 6 15
ATOM     15  C   LYS B   3      -1.030  20.432  16.405  1.00 17.69 LIG 0.20  C 
ATOM     16 OXT  LYS B   3      -0.804  21.592  16.665  1.00 15.19 LIG-0.65  OA
ATOM     17 O    LYS B   3      -2.134  19.928  16.657  1.00 19.25 LIG-0.65  OA
ENDBRANCH 6 15
ENDBRANCH 3 6
ENDBRANCH 1 2
BRANCH 1 18
ATOM     18  CB  CYS B   2       3.887  21.596  16.290  1.00 11.90 LIG 0.10  C 
BRANCH 18 19
ATOM     19 SG   CYS B   2       2.969  22.000  17.867  1.00 13.34 LIG-0.18  SA
ATOM     20 HG   CYS B   2       2.395  21.021  18.258  1.00 13.34 LIG 0.10  HD
ENDBRANCH 18 19
ENDBRANCH 1 18
BRANCH 1 21
ATOM     21  N   CYS B   2       4.775  19.585  15.134  1.00 10.67 LIG-0.34  N 
ATOM     22 H    CYS B   2       5.173  20.188  14.669  1.00 10.67 LIG 0.16  HD
ATOM     23  C   LYS B   1       5.137  18.336  15.108  1.00  9.81 LIG 0.25  C 
ATOM     24 O    LYS B   1       4.625  17.490  15.842  1.00 12.59 LIG-0.27  OA
BRANCH 23 25
ATOM     25  CA  LYS B   1       6.345  17.941  14.263  1.00 10.58 LIG 0.27  C 
BRANCH 25 26
ATOM     26  N   LYS B   1       7.166  16.902  14.987  1.00  8.28 LIG-0.07  N 
ATOM     27 H1   LYS B   1       7.727  16.515  14.415  1.00  8.28 LIG 0.28  HD
ATOM     28 H3   LYS B   1       6.626  16.286  15.336  1.00  8.28 LIG 0.28  HD
ATOM     29 H2   LYS B   1       7.630  17.292  15.639  1.00  8.28 LIG 0.28  HD
ENDBRANCH 25 26
BRANCH 25 30
ATOM     30  CB  LYS B   1       5.846  17.425  12.902  1.00 12.65 LIG 0.04  C 
BRANCH 30 31
ATOM     31  CG  LYS B   1       4.999  16.148  12.925  1.00 13.69 LIG 0.00  C 
BRANCH 31 32
ATOM     32  CD  LYS B   1       4.712  15.642  11.488  1.00 12.46 LIG 0.03  C 
BRANCH 32 33
ATOM     33  CE  LYS B   1       6.048  15.224  10.807  1.00 14.43 LIG 0.23  C 
BRANCH 33 34
ATOM     34  NZ  LYS B   1       6.700  14.280  11.790  1.00 15.78 LIG-0.08  N 
ATOM     35 HZ1  LYS B   1       7.582  14.297  11.677  1.00 15.78 LIG 0.27  HD
ATOM     36 HZ3  LYS B   1       6.399  13.454  11.652  1.00 15.78 LIG 0.27  HD
ATOM     37 HZ2  LYS B   1       6.502  14.533  12.620  1.00 15.78 LIG 0.27  HD
ENDBRANCH 33 34
ENDBRANCH 32 33
ENDBRANCH 31 32
ENDBRANCH 30 31
ENDBRANCH 25 30
ENDBRANCH 23 25
ENDBRANCH 1 21
TORSDOF 18
ENDMDL
