MODEL 1
USER: ADFR SOLUTION from run 74
USER: SCORE 18.794748 LL:  -3.582 LR: -16.910 RR:   0.000 FEB: -10.646
USER: RMSD 1.395867
USER: SEED 73
USER: STATUS 1 or 2 clusters left
USER: GENES 23
USER: genes 0 Translation |==|  0.56600 0.47201 0.51408
USER: genes 1 Rotation |==|  0.51207 0.44029 0.51327 0.99610
USER: genes 2 Torsion [C]-N--CA-[CB] |==|  0.29958
USER: genes 3 Torsion [N]-CA--CB-[CG] |==|  0.26509
USER: genes 4 Torsion [CA]-CB--CG-[CD] |==|  0.60489
USER: genes 5 Torsion [CB]-CG--CD-[OE2] |==|  0.53204
USER: genes 6 Torsion [N]-CA--C-[N] |==|  0.41153
USER: genes 7 Torsion [C]-N--CA-[C] |==|  0.84437
USER: genes 8 Torsion [N]-CA--C-[N] |==|  0.36447
USER: genes 9 Torsion [C]-N--CA-[C] |==|  0.80870
USER: genes 10 Torsion [N]-CA--C-[O] |==|  0.41222
USER: genes 11 Torsion [N]-CA--CB-[CG] |==|  0.71275
USER: genes 12 Torsion [CA]-CB--CG-[CD1] |==|  0.84881
USER: genes 13 Torsion [N]-CA--CB-[CG2] |==|  0.37776
USER: genes 14 Torsion [CA]-CB--OG1-[HG1] |==|  0.07697
USER: genes 15 Torsion [N]-C--CA-[N] |==|  0.34292
USER: genes 16 Torsion [C]-CA--CB-[CG] |==|  0.42405
USER: genes 17 Torsion [CA]-CB--CG-[CD2] |==|  0.76328
USER: genes 18 Torsion [C]-CA--N-[C] |==|  0.60772
USER: genes 19 Torsion [N]-C--CA-[N] |==|  0.43673
USER: genes 20 Torsion [C]-CA--N-[C] |==|  0.61890
USER: genes 21 Torsion [C]-CA--CB-[CG] |==|  0.61843
USER: genes 22 Torsion [CA]-CB--CG-[OD1] |==|  0.75072
ROOT
ATOM      1  C   TRP T   2      72.590  43.890   5.322  1.00 22.72 LIG 0.24  C 
ATOM      2 O    TRP T   2      73.715  44.262   5.693  1.00 25.73 LIG-0.27  OA
ATOM      3  N   GLU T   3      71.694  44.721   4.808  1.00 22.46 LIG-0.35  N 
ATOM      4 H    GLU T   3      70.894  44.508   4.578  1.00 22.46 LIG 0.16  HD
ENDROOT
BRANCH 3 5
ATOM      5  CA  GLU T   3      72.053  46.106   4.602  1.00 22.12 LIG 0.18  C 
BRANCH 5 6
ATOM      6  CB  GLU T   3      72.224  46.392   3.112  1.00 23.21 LIG 0.04  C 
BRANCH 6 7
ATOM      7  CG  GLU T   3      70.973  46.961   2.491  1.00 26.62 LIG 0.12  C 
BRANCH 7 8
ATOM      8  CD  GLU T   3      70.731  46.452   1.109  1.00 29.06 LIG 0.17  C 
ATOM      9 OE2  GLU T   3      69.852  47.014   0.414  1.00 35.17 LIG-0.65  OA
ATOM     10 OE1  GLU T   3      71.413  45.489   0.710  1.00 32.66 LIG-0.65  OA
ENDBRANCH 7 8
ENDBRANCH 6 7
ENDBRANCH 5 6
BRANCH 5 11
ATOM     11  C   GLU T   3      71.034  47.049   5.184  1.00 21.48 LIG 0.24  C 
ATOM     12  N   THR T   4      71.541  48.185   5.625  1.00 23.46 LIG-0.34  N 
ATOM     13 H    THR T   4      72.381  48.363   5.574  1.00 23.46 LIG 0.16  HD
ATOM     14 O    GLU T   3      69.860  46.751   5.259  1.00 21.28 LIG-0.27  OA
BRANCH 12 15
ATOM     15  CA  THR T   4      70.780  49.249   6.235  1.00 25.11 LIG 0.20  C 
BRANCH 15 16
ATOM     16  C   THR T   4      69.668  49.686   5.283  1.00 26.24 LIG 0.24  C 
ATOM     17 O    THR T   4      69.885  49.806   4.083  1.00 26.41 LIG-0.27  OA
ATOM     18  N   PHE T   5      68.456  49.782   5.813  1.00 29.12 LIG-0.34  N 
ATOM     19 H    PHE T   5      68.279  49.578   6.629  1.00 29.12 LIG 0.16  HD
BRANCH 18 20
ATOM     20  CA  PHE T   5      67.304  50.247   5.059  1.00 29.36 LIG 0.19  C 
BRANCH 20 21
ATOM     21  C   PHE T   5      67.468  51.757   4.745  1.00 32.56 LIG 0.20  C 
ATOM     22 O    PHE T   5      66.969  52.182   3.676  1.00 36.67 LIG-0.65  OA
ATOM     23 OXT  PHE T   5      68.061  52.522   5.555  1.00 34.39 LIG-0.65  OA
ENDBRANCH 20 21
BRANCH 20 24
ATOM     24  CB  PHE T   5      66.027  50.065   5.869  1.00 26.24 LIG 0.07  C 
BRANCH 24 25
ATOM     25  CG  PHE T   5      65.188  48.904   5.450  1.00 22.58 LIG-0.06  A 
ATOM     26  CD1 PHE T   5      64.780  48.777   4.135  1.00 21.65 LIG 0.01  A 
ATOM     27  CE1 PHE T   5      63.908  47.787   3.765  1.00 20.51 LIG 0.00  A 
ATOM     28  CZ  PHE T   5      63.437  46.908   4.707  1.00 20.87 LIG 0.00  A 
ATOM     29  CE2 PHE T   5      63.852  47.022   6.025  1.00 20.50 LIG 0.00  A 
ATOM     30  CD2 PHE T   5      64.715  48.006   6.385  1.00 18.29 LIG 0.01  A 
ENDBRANCH 24 25
ENDBRANCH 20 24
ENDBRANCH 18 20
ENDBRANCH 15 16
BRANCH 15 31
ATOM     31  CB  THR T   4      71.785  50.412   6.553  1.00 25.29 LIG 0.15  C 
ATOM     32  CG2 THR T   4      71.260  51.778   6.184  1.00 28.15 LIG 0.04  C 
BRANCH 31 33
ATOM     33 OG1  THR T   4      72.169  50.362   7.936  1.00 26.44 LIG-0.39  OA
ATOM     34 HG1  THR T   4      72.117  49.571   8.214  1.00 26.44 LIG 0.21  HD
ENDBRANCH 31 33
ENDBRANCH 15 31
ENDBRANCH 12 15
ENDBRANCH 5 11
ENDBRANCH 3 5
BRANCH 1 35
ATOM     35  CA  TRP T   2      72.147  42.444   5.493  1.00 22.55 LIG 0.18  C 
BRANCH 35 36
ATOM     36  CB  TRP T   2      72.119  42.087   6.985  1.00 18.37 LIG 0.07  C 
BRANCH 36 37
ATOM     37  CG  TRP T   2      71.123  40.998   7.293  1.00 15.70 LIG-0.03  A 
ATOM     38  CD2 TRP T   2      69.728  41.171   7.548  1.00  9.74 LIG-0.00  A 
ATOM     39  CE2 TRP T   2      69.183  39.895   7.779  1.00 12.08 LIG 0.04  A 
ATOM     40  CE3 TRP T   2      68.888  42.278   7.618  1.00  8.42 LIG 0.01  A 
ATOM     41  CZ2 TRP T   2      67.835  39.707   8.069  1.00 12.57 LIG 0.03  A 
ATOM     42  NE1 TRP T   2      70.202  38.980   7.665  1.00 15.46 LIG-0.36  N 
ATOM     43  CH2 TRP T   2      67.052  40.819   8.127  1.00  9.29 LIG 0.00  A 
ATOM     44  CZ3 TRP T   2      67.575  42.091   7.900  1.00  5.55 LIG 0.00  A 
ATOM     45 HE1  TRP T   2      70.123  38.129   7.763  1.00 15.46 LIG 0.17  HD
ATOM     46  CD1 TRP T   2      71.365  39.647   7.368  1.00 15.83 LIG 0.10  A 
ENDBRANCH 36 37
ENDBRANCH 35 36
BRANCH 35 47
ATOM     47  N   TRP T   2      73.010  41.488   4.810  1.00 22.15 LIG-0.35  N 
ATOM     48  C   ASN T   1      72.554  40.416   4.181  1.00 24.32 LIG 0.24  C 
ATOM     49 O    ASN T   1      71.360  40.100   4.170  1.00 24.18 LIG-0.27  OA
ATOM     50 H    TRP T   2      73.846  41.686   4.855  1.00 22.15 LIG 0.16  HD
BRANCH 48 51
ATOM     51  CA  ASN T   1      73.620  39.485   3.614  1.00 25.81 LIG 0.18  C 
BRANCH 51 52
ATOM     52  N   ASN T   1      73.251  38.112   3.380  1.00 28.18 LIG-0.35  N 
ATOM     53  C   ACE T   0      74.086  37.135   3.716  1.00 27.70 LIG 0.21  C 
ATOM     54 O    ACE T   0      74.367  36.229   2.964  1.00 31.05 LIG-0.27  OA
ATOM     55  CH3 ACE T   0      74.757  37.213   5.066  1.00 28.48 LIG 0.12  C 
ATOM     56 H    ASN T   1      72.479  37.997   3.020  1.00 28.18 LIG 0.16  HD
ENDBRANCH 51 52
BRANCH 51 57
ATOM     57  CB  ASN T   1      74.430  40.093   2.437  1.00 27.81 LIG 0.14  C 
BRANCH 57 58
ATOM     58  CG  ASN T   1      74.674  39.121   1.274  1.00 34.08 LIG 0.22  C 
ATOM     59 OD1  ASN T   1      75.668  38.394   1.240  1.00 41.34 LIG-0.27  OA
ATOM     60  ND2 ASN T   1      73.718  39.048   0.361  1.00 39.83 LIG-0.37  N 
ATOM     61 22HD ASN T   1      73.035  39.570   0.410  1.00 39.83 LIG 0.16  HD
ATOM     62 21HD ASN T   1      73.779  38.480  -0.282  1.00 39.83 LIG 0.16  HD
ENDBRANCH 57 58
ENDBRANCH 51 57
ENDBRANCH 48 51
ENDBRANCH 35 47
ENDBRANCH 1 35
TORSDOF 21
ENDMDL
MODEL 2
USER: ADFR SOLUTION from run 19
USER: SCORE 18.520681 LL:  -4.159 LR: -15.814 RR:   0.000 FEB:  -9.550
USER: RMSD 1.606856
USER: SEED 18
USER: STATUS no improvement in best 2 clusters for 5 generations
USER: GENES 23
USER: genes 0 Translation |==|  0.55263 0.51156 0.51369
USER: genes 1 Rotation |==|  0.50398 0.47757 0.54077 0.99781
USER: genes 2 Torsion [C]-N--CA-[CB] |==|  0.25000
USER: genes 3 Torsion [N]-CA--CB-[CG] |==|  0.09800
USER: genes 4 Torsion [CA]-CB--CG-[CD] |==|  0.44814
USER: genes 5 Torsion [CB]-CG--CD-[OE2] |==|  0.68290
USER: genes 6 Torsion [N]-CA--C-[N] |==|  0.51235
USER: genes 7 Torsion [C]-N--CA-[C] |==|  0.77397
USER: genes 8 Torsion [N]-CA--C-[N] |==|  0.46318
USER: genes 9 Torsion [C]-N--CA-[C] |==|  0.70999
USER: genes 10 Torsion [N]-CA--C-[O] |==|  0.53207
USER: genes 11 Torsion [N]-CA--CB-[CG] |==|  0.85072
USER: genes 12 Torsion [CA]-CB--CG-[CD1] |==|  0.69398
USER: genes 13 Torsion [N]-CA--CB-[CG2] |==|  0.29056
USER: genes 14 Torsion [CA]-CB--OG1-[HG1] |==|  0.79736
USER: genes 15 Torsion [N]-C--CA-[N] |==|  0.37124
USER: genes 16 Torsion [C]-CA--CB-[CG] |==|  0.46028
USER: genes 17 Torsion [CA]-CB--CG-[CD2] |==|  0.75838
USER: genes 18 Torsion [C]-CA--N-[C] |==|  0.66446
USER: genes 19 Torsion [N]-C--CA-[N] |==|  0.46725
USER: genes 20 Torsion [C]-CA--N-[C] |==|  0.77416
USER: genes 21 Torsion [C]-CA--CB-[CG] |==|  0.92318
USER: genes 22 Torsion [CA]-CB--CG-[OD1] |==|  0.31576
ROOT
ATOM      1  C   TRP T   2      72.189  45.077   5.311  1.00 22.72 LIG 0.24  C 
ATOM      2 O    TRP T   2      73.306  45.584   5.496  1.00 25.73 LIG-0.27  OA
ATOM      3  N   GLU T   3      71.141  45.779   4.900  1.00 22.46 LIG-0.35  N 
ATOM      4 H    GLU T   3      70.346  45.470   4.799  1.00 22.46 LIG 0.16  HD
ENDROOT
BRANCH 3 5
ATOM      5  CA  GLU T   3      71.311  47.179   4.586  1.00 22.12 LIG 0.18  C 
BRANCH 5 6
ATOM      6  CB  GLU T   3      71.676  47.352   3.114  1.00 23.21 LIG 0.04  C 
BRANCH 6 7
ATOM      7  CG  GLU T   3      70.990  46.339   2.232  1.00 26.62 LIG 0.12  C 
BRANCH 7 8
ATOM      8  CD  GLU T   3      70.968  46.745   0.795  1.00 29.06 LIG 0.17  C 
ATOM      9 OE2  GLU T   3      69.860  46.995   0.266  1.00 35.17 LIG-0.65  OA
ATOM     10 OE1  GLU T   3      72.054  46.815   0.188  1.00 32.66 LIG-0.65  OA
ENDBRANCH 7 8
ENDBRANCH 6 7
ENDBRANCH 5 6
BRANCH 5 11
ATOM     11  C   GLU T   3      70.077  47.984   4.899  1.00 21.48 LIG 0.24  C 
ATOM     12  N   THR T   4      70.155  49.251   4.541  1.00 23.46 LIG-0.34  N 
ATOM     13 H    THR T   4      70.853  49.578   4.157  1.00 23.46 LIG 0.16  HD
ATOM     14 O    GLU T   3      69.121  47.490   5.461  1.00 21.28 LIG-0.27  OA
BRANCH 12 15
ATOM     15  CA  THR T   4      69.114  50.233   4.738  1.00 25.11 LIG 0.20  C 
BRANCH 15 16
ATOM     16  C   THR T   4      68.076  50.100   3.625  1.00 26.24 LIG 0.24  C 
ATOM     17 O    THR T   4      68.264  49.337   2.684  1.00 26.41 LIG-0.27  OA
ATOM     18  N   PHE T   5      66.933  50.743   3.820  1.00 29.12 LIG-0.34  N 
ATOM     19 H    PHE T   5      66.751  51.179   4.538  1.00 29.12 LIG 0.16  HD
BRANCH 18 20
ATOM     20  CA  PHE T   5      65.870  50.771   2.829  1.00 29.36 LIG 0.19  C 
BRANCH 20 21
ATOM     21  C   PHE T   5      65.851  52.156   2.131  1.00 32.56 LIG 0.20  C 
ATOM     22 O    PHE T   5      64.861  52.427   1.411  1.00 36.67 LIG-0.65  OA
ATOM     23 OXT  PHE T   5      66.791  52.980   2.311  1.00 34.39 LIG-0.65  OA
ENDBRANCH 20 21
BRANCH 20 24
ATOM     24  CB  PHE T   5      64.516  50.554   3.493  1.00 26.24 LIG 0.07  C 
BRANCH 24 25
ATOM     25  CG  PHE T   5      64.430  49.326   4.337  1.00 22.58 LIG-0.06  A 
ATOM     26  CD1 PHE T   5      63.655  48.255   3.932  1.00 21.65 LIG 0.01  A 
ATOM     27  CE1 PHE T   5      63.467  47.175   4.754  1.00 20.51 LIG 0.00  A 
ATOM     28  CZ  PHE T   5      64.059  47.153   5.992  1.00 20.87 LIG 0.00  A 
ATOM     29  CE2 PHE T   5      64.846  48.218   6.400  1.00 20.50 LIG 0.00  A 
ATOM     30  CD2 PHE T   5      65.027  49.285   5.580  1.00 18.29 LIG 0.01  A 
ENDBRANCH 24 25
ENDBRANCH 20 24
ENDBRANCH 18 20
ENDBRANCH 15 16
BRANCH 15 31
ATOM     31  CB  THR T   4      69.804  51.642   4.747  1.00 25.29 LIG 0.15  C 
ATOM     32  CG2 THR T   4      69.591  52.424   3.473  1.00 28.15 LIG 0.04  C 
BRANCH 31 33
ATOM     33 OG1  THR T   4      69.369  52.393   5.892  1.00 26.44 LIG-0.39  OA
ATOM     34 HG1  THR T   4      68.575  52.645   5.777  1.00 26.44 LIG 0.21  HD
ENDBRANCH 31 33
ENDBRANCH 15 31
ENDBRANCH 12 15
ENDBRANCH 5 11
ENDBRANCH 3 5
BRANCH 1 35
ATOM     35  CA  TRP T   2      71.939  43.604   5.604  1.00 22.55 LIG 0.18  C 
BRANCH 35 36
ATOM     36  CB  TRP T   2      71.912  43.380   7.121  1.00 18.37 LIG 0.07  C 
BRANCH 36 37
ATOM     37  CG  TRP T   2      71.335  42.036   7.490  1.00 15.70 LIG-0.03  A 
ATOM     38  CD2 TRP T   2      69.954  41.731   7.689  1.00  9.74 LIG-0.00  A 
ATOM     39  CE2 TRP T   2      69.868  40.364   8.009  1.00 12.08 LIG 0.04  A 
ATOM     40  CE3 TRP T   2      68.782  42.480   7.642  1.00  8.42 LIG 0.01  A 
ATOM     41  CZ2 TRP T   2      68.653  39.741   8.274  1.00 12.57 LIG 0.03  A 
ATOM     42  NE1 TRP T   2      71.144  39.854   8.000  1.00 15.46 LIG-0.36  N 
ATOM     43  CH2 TRP T   2      67.534  40.513   8.216  1.00  9.29 LIG 0.00  A 
ATOM     44  CZ3 TRP T   2      67.599  41.869   7.900  1.00  5.55 LIG 0.00  A 
ATOM     45 HE1  TRP T   2      71.357  39.037   8.166  1.00 15.46 LIG 0.17  HD
ATOM     46  CD1 TRP T   2      72.022  40.861   7.683  1.00 15.83 LIG 0.10  A 
ENDBRANCH 36 37
ENDBRANCH 35 36
BRANCH 35 47
ATOM     47  N   TRP T   2      72.944  42.719   5.029  1.00 22.15 LIG-0.35  N 
ATOM     48  C   ASN T   1      72.658  41.759   4.163  1.00 24.32 LIG 0.24  C 
ATOM     49 O    ASN T   1      71.504  41.490   3.814  1.00 24.18 LIG-0.27  OA
ATOM     50 H    TRP T   2      73.742  42.879   5.305  1.00 22.15 LIG 0.16  HD
BRANCH 48 51
ATOM     51  CA  ASN T   1      73.830  40.875   3.752  1.00 25.81 LIG 0.18  C 
BRANCH 51 52
ATOM     52  N   ASN T   1      73.534  39.668   3.025  1.00 28.18 LIG-0.35  N 
ATOM     53  C   ACE T   0      73.142  38.579   3.678  1.00 27.70 LIG 0.21  C 
ATOM     54 O    ACE T   0      73.628  37.489   3.481  1.00 31.05 LIG-0.27  OA
ATOM     55  CH3 ACE T   0      72.098  38.742   4.758  1.00 28.48 LIG 0.12  C 
ATOM     56 H    ASN T   1      73.631  39.720   2.172  1.00 28.18 LIG 0.16  HD
ENDBRANCH 51 52
BRANCH 51 57
ATOM     57  CB  ASN T   1      75.029  41.656   3.146  1.00 27.81 LIG 0.14  C 
BRANCH 57 58
ATOM     58  CG  ASN T   1      74.638  42.972   2.458  1.00 34.08 LIG 0.22  C 
ATOM     59 OD1  ASN T   1      74.992  44.063   2.905  1.00 41.34 LIG-0.27  OA
ATOM     60  ND2 ASN T   1      73.974  42.861   1.317  1.00 39.83 LIG-0.37  N 
ATOM     61 22HD ASN T   1      73.739  42.084   1.029  1.00 39.83 LIG 0.16  HD
ATOM     62 21HD ASN T   1      73.779  43.565   0.863  1.00 39.83 LIG 0.16  HD
ENDBRANCH 57 58
ENDBRANCH 51 57
ENDBRANCH 48 51
ENDBRANCH 35 47
ENDBRANCH 1 35
TORSDOF 21
ENDMDL
