MODEL 1
USER: ADFR SOLUTION from run 97
USER: SCORE 16.215534 LL:  -3.126 LR: -14.271 RR:   0.000 FEB:  -8.902
USER: RMSD 1.254351
USER: SEED 96
USER: STATUS no improvement in best 1 clusters for 5 generations
USER: GENES 20
USER: genes 0 Translation |==|  0.48414 0.47342 0.47522
USER: genes 1 Rotation |==|  0.49122 0.44235 0.50084 0.99659
USER: genes 2 Torsion [C]-CA--CB-[CG2] |==|  0.13550
USER: genes 3 Torsion [CA]-CB--OG1-[HG1] |==|  0.14268
USER: genes 4 Torsion [N]-CA--C-[N] |==|  0.40668
USER: genes 5 Torsion [C]-N--CA-[C] |==|  0.77469
USER: genes 6 Torsion [N]-CA--CB-[OG] |==|  0.55643
USER: genes 7 Torsion [CA]-CB--OG-[HG] |==|  0.17142
USER: genes 8 Torsion [N]-CA--C-[N] |==|  0.44257
USER: genes 9 Torsion [C]-N--CA-[CB] |==|  0.23938
USER: genes 10 Torsion [N]-CA--CB-[CG1] |==|  0.42276
USER: genes 11 Torsion [N]-CA--C-[OXT] |==|  0.90520
USER: genes 12 Torsion [CB]-CA--N-[C] |==|  0.23754
USER: genes 13 Torsion [N]-C--CA-[N] |==|  0.40119
USER: genes 14 Torsion [C]-CA--N-[C] |==|  0.60624
USER: genes 15 Torsion [N]-C--CA-[N] |==|  0.54402
USER: genes 16 Torsion [C]-CA--N-[H1] |==|  0.39954
USER: genes 17 Torsion [C]-CA--CB-[CG] |==|  0.06575
USER: genes 18 Torsion [CA]-CB--CG-[CD] |==|  0.30626
USER: genes 19 Torsion [CB]-CG--CD-[NE2] |==|  0.74759
ROOT
ATOM      1  CA  THR B   7      38.524  55.933  21.527  1.00 17.88 LIG 0.20  C 
ENDROOT
BRANCH 1 2
ATOM      2  CB  THR B   7      36.996  55.980  21.267  1.00 14.05 LIG 0.15  C 
ATOM      3  CG2 THR B   7      36.614  57.234  20.506  1.00 13.72 LIG 0.04  C 
BRANCH 2 4
ATOM      4 OG1  THR B   7      36.608  54.835  20.500  1.00 17.31 LIG-0.39  OA
ATOM      5 HG1  THR B   7      36.902  54.139  20.868  1.00 17.31 LIG 0.21  HD
ENDBRANCH 2 4
ENDBRANCH 1 2
BRANCH 1 6
ATOM      6  C   THR B   7      38.974  57.271  22.097  1.00 17.05 LIG 0.24  C 
ATOM      7 O    THR B   7      38.988  57.467  23.309  1.00 16.06 LIG-0.27  OA
ATOM      8  N   SER B   8      39.362  58.184  21.213  1.00 14.96 LIG-0.34  N 
ATOM      9 H    SER B   8      39.391  58.056  20.364  1.00 14.96 LIG 0.16  HD
BRANCH 8 10
ATOM     10  CA  SER B   8      39.777  59.506  21.644  1.00 16.48 LIG 0.20  C 
BRANCH 10 11
ATOM     11  CB  SER B   8      40.669  60.158  20.578  1.00 16.65 LIG 0.20  C 
BRANCH 11 12
ATOM     12 OG   SER B   8      41.451  61.203  21.124  1.00 27.09 LIG-0.40  OA
ATOM     13 HG   SER B   8      41.960  60.892  21.715  1.00 27.09 LIG 0.21  HD
ENDBRANCH 11 12
ENDBRANCH 10 11
BRANCH 10 14
ATOM     14  C   SER B   8      38.504  60.326  21.876  1.00 17.61 LIG 0.24  C 
ATOM     15 O    SER B   8      37.427  59.992  21.367  1.00 19.05 LIG-0.27  OA
ATOM     16  N   VAL B   9      38.624  61.391  22.658  1.00 16.11 LIG-0.34  N 
ATOM     17 H    VAL B   9      39.363  61.641  23.019  1.00 16.11 LIG 0.16  HD
BRANCH 16 18
ATOM     18  CA  VAL B   9      37.482  62.240  22.973  1.00 15.65 LIG 0.19  C 
BRANCH 18 19
ATOM     19  CB  VAL B   9      36.706  61.686  24.195  1.00 11.15 LIG 0.01  C 
ATOM     20  CG1 VAL B   9      36.005  62.821  24.934  1.00 14.96 LIG 0.01  C 
ATOM     21  CG2 VAL B   9      35.690  60.661  23.736  1.00  9.83 LIG 0.01  C 
ENDBRANCH 18 19
BRANCH 18 22
ATOM     22  C   VAL B   9      37.910  63.674  23.279  1.00 14.44 LIG 0.20  C 
ATOM     23 O    VAL B   9      37.146  64.605  22.952  1.00 16.00 LIG-0.65  OA
ATOM     24 OXT  VAL B   9      39.000  63.855  23.854  1.00 15.84 LIG-0.65  OA
ENDBRANCH 18 22
ENDBRANCH 16 18
ENDBRANCH 10 14
ENDBRANCH 8 10
ENDBRANCH 1 6
BRANCH 1 25
ATOM     25  N   THR B   7      38.865  54.831  22.414  1.00 17.70 LIG-0.34  N 
ATOM     26 H    THR B   7      38.919  55.042  23.246  1.00 17.70 LIG 0.16  HD
ATOM     27  C   GLN B   6      39.070  53.611  21.939  1.00 20.89 LIG 0.24  C 
ATOM     28 O    GLN B   6      39.007  53.339  20.740  1.00 21.39 LIG-0.27  OA
BRANCH 27 29
ATOM     29  CA  GLN B   6      39.407  52.538  22.955  1.00 22.72 LIG 0.18  C 
BRANCH 29 30
ATOM     30  N   GLN B   6      38.799  51.281  22.530  1.00 25.12 LIG-0.35  N 
ATOM     31  C   LYS B   5      38.260  50.428  23.395  1.00 28.85 LIG 0.25  C 
ATOM     32 O    LYS B   5      38.251  50.618  24.613  1.00 29.08 LIG-0.27  OA
ATOM     33 H    GLN B   6      38.822  51.148  21.681  1.00 25.12 LIG 0.16  HD
BRANCH 31 34
ATOM     34  CA  LYS B   5      37.647  49.166  22.799  1.00 31.70 LIG 0.28  C 
ATOM     35  CB  LYS B   5      36.861  49.512  21.529  1.00 33.53 LIG 0.03  C 
BRANCH 34 36
ATOM     36  N   LYS B   5      36.754  48.481  23.781  1.00 35.61 LIG-0.07  N 
ATOM     37 H1   LYS B   5      36.058  48.129  23.353  1.00 35.61 LIG 0.28  HD
ATOM     38 H3   LYS B   5      36.466  49.071  24.382  1.00 35.61 LIG 0.28  HD
ATOM     39 H2   LYS B   5      37.207  47.835  24.193  1.00 35.61 LIG 0.28  HD
ENDBRANCH 34 36
ENDBRANCH 31 34
ENDBRANCH 29 30
BRANCH 29 40
ATOM     40  CB  GLN B   6      40.923  52.402  23.048  1.00 21.86 LIG 0.04  C 
BRANCH 40 41
ATOM     41  CG  GLN B   6      41.664  53.628  22.619  1.00 24.26 LIG 0.10  C 
BRANCH 41 42
ATOM     42  CD  GLN B   6      42.343  54.344  23.770  1.00 23.46 LIG 0.21  C 
ATOM     43  NE2 GLN B   6      41.625  55.281  24.365  1.00 26.30 LIG-0.37  N 
ATOM     44 22HE GLN B   6      41.959  55.728  25.020  1.00 26.30 LIG 0.16  HD
ATOM     45 21HE GLN B   6      40.825  55.445  24.098  1.00 26.30 LIG 0.16  HD
ATOM     46 OE1  GLN B   6      43.501  54.070  24.117  1.00 21.71 LIG-0.27  OA
ENDBRANCH 41 42
ENDBRANCH 40 41
ENDBRANCH 29 40
ENDBRANCH 27 29
ENDBRANCH 1 25
TORSDOF 18
ENDMDL
MODEL 2
USER: ADFR SOLUTION from run 68
USER: SCORE 14.594591 LL:  -3.349 LR: -12.795 RR:   0.000 FEB:  -7.426
USER: RMSD 1.458115
USER: SEED 67
USER: STATUS no improvement in best 2 clusters for 5 generations
USER: GENES 20
USER: genes 0 Translation |==|  0.49178 0.49553 0.48264
USER: genes 1 Rotation |==|  0.49132 0.49394 0.54682 0.99769
USER: genes 2 Torsion [C]-CA--CB-[CG2] |==|  0.10869
USER: genes 3 Torsion [CA]-CB--OG1-[HG1] |==|  0.20609
USER: genes 4 Torsion [N]-CA--C-[N] |==|  0.35713
USER: genes 5 Torsion [C]-N--CA-[C] |==|  0.78911
USER: genes 6 Torsion [N]-CA--CB-[OG] |==|  0.85339
USER: genes 7 Torsion [CA]-CB--OG-[HG] |==|  0.83168
USER: genes 8 Torsion [N]-CA--C-[N] |==|  0.41764
USER: genes 9 Torsion [C]-N--CA-[CB] |==|  0.26569
USER: genes 10 Torsion [N]-CA--CB-[CG1] |==|  0.78639
USER: genes 11 Torsion [N]-CA--C-[OXT] |==|  0.98677
USER: genes 12 Torsion [CB]-CA--N-[C] |==|  0.44545
USER: genes 13 Torsion [N]-C--CA-[N] |==|  0.10956
USER: genes 14 Torsion [C]-CA--N-[C] |==|  0.17778
USER: genes 15 Torsion [N]-C--CA-[N] |==|  0.47808
USER: genes 16 Torsion [C]-CA--N-[H1] |==|  0.00057
USER: genes 17 Torsion [C]-CA--CB-[CG] |==|  0.44701
USER: genes 18 Torsion [CA]-CB--CG-[CD] |==|  0.72122
USER: genes 19 Torsion [CB]-CG--CD-[NE2] |==|  0.59323
ROOT
ATOM      1  CA  THR B   7      38.753  56.596  21.749  1.00 17.88 LIG 0.20  C 
ENDROOT
BRANCH 1 2
ATOM      2  CB  THR B   7      37.221  56.365  21.814  1.00 14.05 LIG 0.15  C 
ATOM      3  CG2 THR B   7      36.467  57.600  21.363  1.00 13.72 LIG 0.04  C 
BRANCH 2 4
ATOM      4 OG1  THR B   7      36.869  55.268  20.962  1.00 17.31 LIG-0.39  OA
ATOM      5 HG1  THR B   7      37.105  54.547  21.323  1.00 17.31 LIG 0.21  HD
ENDBRANCH 2 4
ENDBRANCH 1 2
BRANCH 1 6
ATOM      6  C   THR B   7      39.062  58.014  22.210  1.00 17.05 LIG 0.24  C 
ATOM      7 O    THR B   7      38.970  58.327  23.394  1.00 16.06 LIG-0.27  OA
ATOM      8  N   SER B   8      39.452  58.865  21.267  1.00 14.96 LIG-0.34  N 
ATOM      9 H    SER B   8      39.555  58.659  20.439  1.00 14.96 LIG 0.16  HD
BRANCH 8 10
ATOM     10  CA  SER B   8      39.739  60.251  21.589  1.00 16.48 LIG 0.20  C 
BRANCH 10 11
ATOM     11  CB  SER B   8      40.554  60.902  20.463  1.00 16.65 LIG 0.20  C 
BRANCH 11 12
ATOM     12 OG   SER B   8      41.706  60.144  20.151  1.00 27.09 LIG-0.40  OA
ATOM     13 HG   SER B   8      42.198  60.090  20.829  1.00 27.09 LIG 0.21  HD
ENDBRANCH 11 12
ENDBRANCH 10 11
BRANCH 10 14
ATOM     14  C   SER B   8      38.393  60.959  21.777  1.00 17.61 LIG 0.24  C 
ATOM     15 O    SER B   8      37.381  60.576  21.178  1.00 19.05 LIG-0.27  OA
ATOM     16  N   VAL B   9      38.379  61.981  22.622  1.00 16.11 LIG-0.34  N 
ATOM     17 H    VAL B   9      39.071  62.264  23.046  1.00 16.11 LIG 0.16  HD
BRANCH 16 18
ATOM     18  CA  VAL B   9      37.156  62.723  22.903  1.00 15.65 LIG 0.19  C 
BRANCH 18 19
ATOM     19  CB  VAL B   9      36.470  62.185  24.184  1.00 11.15 LIG 0.01  C 
ATOM     20  CG1 VAL B   9      35.746  60.877  23.886  1.00 14.96 LIG 0.01  C 
ATOM     21  CG2 VAL B   9      37.505  61.969  25.268  1.00  9.83 LIG 0.01  C 
ENDBRANCH 18 19
BRANCH 18 22
ATOM     22  C   VAL B   9      37.428  64.215  23.087  1.00 14.44 LIG 0.20  C 
ATOM     23 O    VAL B   9      36.457  64.980  23.256  1.00 16.00 LIG-0.65  OA
ATOM     24 OXT  VAL B   9      38.611  64.605  23.073  1.00 15.84 LIG-0.65  OA
ENDBRANCH 18 22
ENDBRANCH 16 18
ENDBRANCH 10 14
ENDBRANCH 8 10
ENDBRANCH 1 6
BRANCH 1 25
ATOM     25  N   THR B   7      39.461  55.607  22.548  1.00 17.70 LIG-0.34  N 
ATOM     26 H    THR B   7      38.980  55.213  23.142  1.00 17.70 LIG 0.16  HD
ATOM     27  C   GLN B   6      40.748  55.362  22.347  1.00 20.89 LIG 0.24  C 
ATOM     28 O    GLN B   6      41.419  55.955  21.503  1.00 21.39 LIG-0.27  OA
BRANCH 27 29
ATOM     29  CA  GLN B   6      41.379  54.303  23.228  1.00 22.72 LIG 0.18  C 
BRANCH 29 30
ATOM     30  N   GLN B   6      40.428  53.209  23.401  1.00 25.12 LIG-0.35  N 
ATOM     31  C   LYS B   5      40.018  52.459  22.383  1.00 28.85 LIG 0.25  C 
ATOM     32 O    LYS B   5      40.387  52.641  21.221  1.00 29.08 LIG-0.27  OA
ATOM     33 H    GLN B   6      40.163  53.097  24.211  1.00 25.12 LIG 0.16  HD
BRANCH 31 34
ATOM     34  CA  LYS B   5      39.038  51.343  22.724  1.00 31.70 LIG 0.28  C 
ATOM     35  CB  LYS B   5      39.720  50.295  23.611  1.00 33.53 LIG 0.03  C 
BRANCH 34 36
ATOM     36  N   LYS B   5      38.504  50.695  21.489  1.00 35.61 LIG-0.07  N 
ATOM     37 H1   LYS B   5      38.863  51.082  20.772  1.00 35.61 LIG 0.28  HD
ATOM     38 H3   LYS B   5      37.619  50.787  21.464  1.00 35.61 LIG 0.28  HD
ATOM     39 H2   LYS B   5      38.712  49.829  21.494  1.00 35.61 LIG 0.28  HD
ENDBRANCH 34 36
ENDBRANCH 31 34
ENDBRANCH 29 30
BRANCH 29 40
ATOM     40  CB  GLN B   6      42.660  53.807  22.567  1.00 21.86 LIG 0.04  C 
BRANCH 40 41
ATOM     41  CG  GLN B   6      43.595  53.116  23.508  1.00 24.26 LIG 0.10  C 
BRANCH 41 42
ATOM     42  CD  GLN B   6      44.734  54.003  23.970  1.00 23.46 LIG 0.21  C 
ATOM     43  NE2 GLN B   6      45.886  53.391  24.185  1.00 26.30 LIG-0.37  N 
ATOM     44 22HE GLN B   6      46.567  53.840  24.457  1.00 26.30 LIG 0.16  HD
ATOM     45 21HE GLN B   6      45.954  52.544  24.055  1.00 26.30 LIG 0.16  HD
ATOM     46 OE1  GLN B   6      44.584  55.221  24.143  1.00 21.71 LIG-0.27  OA
ENDBRANCH 41 42
ENDBRANCH 40 41
ENDBRANCH 29 40
ENDBRANCH 27 29
ENDBRANCH 1 25
TORSDOF 18
ENDMDL
