MODEL 1
USER: ADFR SOLUTION from run 10
USER: SCORE 15.616137 LL:  -4.416 LR: -12.697 RR:   0.000 FEB:  -6.134
USER: RMSD 1.517573
USER: SEED 575052
USER: STATUS 1 or 2 clusters left
USER: GENES 24
USER: genes 0 Translation |==|  0.44990 0.51002 0.48392
USER: genes 1 Rotation |==|  0.50403 0.48881 0.47257 0.99911
USER: genes 2 Torsion [C]-CA--CB-[CG] |==|  0.32550
USER: genes 3 Torsion [CA]-CB--CG-[CD] |==|  0.43254
USER: genes 4 Torsion [CB]-CG--CD-[OE1] |==|  0.23776
USER: genes 5 Torsion [N]-CA--C-[N] |==|  0.37932
USER: genes 6 Torsion [C]-N--CA-[CB] |==|  0.51111
USER: genes 7 Torsion [N]-CA--CB-[CG] |==|  0.12909
USER: genes 8 Torsion [CA]-CB--CG-[CD] |==|  0.76735
USER: genes 9 Torsion [CB]-CG--CD-[OE1] |==|  0.66319
USER: genes 10 Torsion [N]-CA--C-[N] |==|  0.36345
USER: genes 11 Torsion [C]-N--CA-[C] |==|  0.63884
USER: genes 12 Torsion [N]-CA--C-[OXT] |==|  0.41605
USER: genes 13 Torsion [N]-CA--CB-[CG2] |==|  0.96092
USER: genes 14 Torsion [CA]-CB--CG1-[CD1] |==|  0.39957
USER: genes 15 Torsion [CB]-CA--N-[C] |==|  0.49575
USER: genes 16 Torsion [N]-C--CA-[N] |==|  0.36995
USER: genes 17 Torsion [C]-CA--N-[C] |==|  0.73088
USER: genes 18 Torsion [N]-C--CA-[N] |==|  0.10355
USER: genes 19 Torsion [C]-CA--CB-[CG] |==|  0.80376
USER: genes 20 Torsion [CA]-CB--CG-[OD1] |==|  0.95268
USER: genes 21 Torsion [C]-CA--N-[H3] |==|  0.26438
USER: genes 22 Torsion [C]-CA--CB-[CG] |==|  0.45521
USER: genes 23 Torsion [CA]-CB--CG-[CD1] |==|  0.23169
ROOT
ATOM      1  CA  GLU E  57       6.447  -6.349  -1.292  1.00 37.57 LIG 0.18  C 
ENDROOT
BRANCH 1 2
ATOM      2  CB  GLU E  57       5.462  -5.205  -1.180  1.00 31.17 LIG 0.04  C 
BRANCH 2 3
ATOM      3  CG  GLU E  57       4.368  -5.232  -2.202  1.00 31.87 LIG 0.12  C 
BRANCH 3 4
ATOM      4  CD  GLU E  57       3.140  -4.493  -1.746  1.00 37.45 LIG 0.17  C 
ATOM      5 OE1  GLU E  57       3.072  -3.265  -1.929  1.00 40.31 LIG-0.65  OA
ATOM      6 OE2  GLU E  57       2.233  -5.139  -1.187  1.00 37.89 LIG-0.65  OA
ENDBRANCH 3 4
ENDBRANCH 2 3
ENDBRANCH 1 2
BRANCH 1 7
ATOM      7  C   GLU E  57       7.851  -5.836  -1.609  1.00 41.20 LIG 0.24  C 
ATOM      8  N   GLU E  58       8.214  -6.023  -2.853  1.00 46.60 LIG-0.35  N 
ATOM      9 H    GLU E  58       7.698  -6.399  -3.428  1.00 46.60 LIG 0.16  HD
ATOM     10 O    GLU E  57       8.588  -5.313  -0.776  1.00 39.74 LIG-0.27  OA
BRANCH 8 11
ATOM     11  CA  GLU E  58       9.491  -5.635  -3.416  1.00 48.53 LIG 0.18  C 
BRANCH 11 12
ATOM     12  CB  GLU E  58       9.459  -5.949  -4.930  1.00 56.76 LIG 0.04  C 
BRANCH 12 13
ATOM     13  CG  GLU E  58       8.204  -5.525  -5.797  1.00 68.50 LIG 0.12  C 
BRANCH 13 14
ATOM     14  CD  GLU E  58       6.957  -6.475  -5.822  1.00 69.79 LIG 0.17  C 
ATOM     15 OE2  GLU E  58       6.404  -6.767  -4.734  1.00 69.71 LIG-0.65  OA
ATOM     16 OE1  GLU E  58       6.532  -6.957  -6.899  1.00 71.02 LIG-0.65  OA
ENDBRANCH 13 14
ENDBRANCH 12 13
ENDBRANCH 11 12
BRANCH 11 17
ATOM     17  C   GLU E  58       9.820  -4.186  -3.089  1.00 48.41 LIG 0.24  C 
ATOM     18  N   ILE E  59      11.038  -4.012  -2.602  1.00 45.67 LIG-0.34  N 
ATOM     19 H    ILE E  59      11.602  -4.649  -2.476  1.00 45.67 LIG 0.16  HD
ATOM     20 O    GLU E  58       8.966  -3.285  -3.173  1.00 49.96 LIG-0.27  OA
BRANCH 18 21
ATOM     21  CA  ILE E  59      11.525  -2.699  -2.237  1.00 48.61 LIG 0.19  C 
BRANCH 21 22
ATOM     22  C   ILE E  59      12.901  -2.458  -2.874  1.00 51.92 LIG 0.20  C 
ATOM     23 OXT  ILE E  59      13.251  -1.287  -3.183  1.00 54.21 LIG-0.65  OA
ATOM     24 O    ILE E  59      13.613  -3.474  -3.073  1.00 54.03 LIG-0.65  OA
ENDBRANCH 21 22
BRANCH 21 25
ATOM     25  CB  ILE E  59      11.539  -2.532  -0.679  1.00 45.36 LIG 0.01  C 
ATOM     26  CG2 ILE E  59      10.716  -3.653  -0.046  1.00 47.34 LIG 0.01  C 
BRANCH 25 27
ATOM     27  CG1 ILE E  59      12.950  -2.595  -0.115  1.00 43.95 LIG 0.00  C 
ATOM     28  CD1 ILE E  59      13.157  -1.663   1.045  1.00 41.62 LIG 0.01  C 
ENDBRANCH 25 27
ENDBRANCH 21 25
ENDBRANCH 18 21
ENDBRANCH 11 17
ENDBRANCH 8 11
ENDBRANCH 1 7
BRANCH 1 29
ATOM     29  N   GLU E  57       6.561  -7.023  -0.025  1.00 40.65 LIG-0.35  N 
ATOM     30  C   PHE E  56       7.334  -8.085   0.162  1.00 43.72 LIG 0.24  C 
ATOM     31 O    PHE E  56       7.969  -8.664  -0.737  1.00 43.94 LIG-0.27  OA
ATOM     32 H    GLU E  57       6.083  -6.672   0.598  1.00 40.65 LIG 0.16  HD
BRANCH 30 33
ATOM     33  CA  PHE E  56       7.323  -8.626   1.591  1.00 42.97 LIG 0.18  C 
BRANCH 33 34
ATOM     34  N   PHE E  56       7.159 -10.072   1.654  1.00 46.55 LIG-0.35  N 
ATOM     35 H    PHE E  56       7.891 -10.511   1.548  1.00 46.55 LIG 0.16  HD
ATOM     36  C   ASP E  55       5.981 -10.650   1.859  1.00 50.93 LIG 0.25  C 
ATOM     37 O    ASP E  55       4.925 -10.025   1.964  1.00 52.54 LIG-0.27  OA
BRANCH 36 38
ATOM     38  CA  ASP E  55       6.019 -12.183   1.898  1.00 54.04 LIG 0.28  C 
BRANCH 38 39
ATOM     39  CB  ASP E  55       4.824 -12.763   2.688  1.00 59.52 LIG 0.15  C 
BRANCH 39 40
ATOM     40  CG  ASP E  55       4.894 -12.523   4.213  1.00 62.29 LIG 0.17  C 
ATOM     41 OD2  ASP E  55       3.830 -12.650   4.849  1.00 64.60 LIG-0.65  OA
ATOM     42 OD1  ASP E  55       5.959 -12.199   4.789  1.00 62.89 LIG-0.65  OA
ENDBRANCH 39 40
ENDBRANCH 38 39
BRANCH 38 43
ATOM     43  N   ASP E  55       7.297 -12.579   2.588  1.00 53.57 LIG-0.07  N 
ATOM     44 H3   ASP E  55       7.137 -12.721   3.452  1.00 53.57 LIG 0.28  HD
ATOM     45 H2   ASP E  55       7.896 -11.926   2.501  1.00 53.57 LIG 0.28  HD
ATOM     46 H1   ASP E  55       7.616 -13.324   2.219  1.00 53.57 LIG 0.28  HD
ENDBRANCH 38 43
ENDBRANCH 36 38
ENDBRANCH 33 34
BRANCH 33 47
ATOM     47  CB  PHE E  56       8.610  -8.210   2.332  1.00 40.20 LIG 0.07  C 
BRANCH 47 48
ATOM     48  CG  PHE E  56       8.528  -8.359   3.840  1.00 37.86 LIG-0.06  A 
ATOM     49  CD1 PHE E  56       8.770  -9.590   4.461  1.00 37.96 LIG 0.01  A 
ATOM     50  CE1 PHE E  56       8.700  -9.743   5.856  1.00 36.63 LIG 0.00  A 
ATOM     51  CZ  PHE E  56       8.373  -8.647   6.640  1.00 33.67 LIG 0.00  A 
ATOM     52  CE2 PHE E  56       8.126  -7.410   6.034  1.00 33.57 LIG 0.00  A 
ATOM     53  CD2 PHE E  56       8.208  -7.273   4.641  1.00 33.78 LIG 0.01  A 
ENDBRANCH 47 48
ENDBRANCH 33 47
ENDBRANCH 30 33
ENDBRANCH 1 29
TORSDOF 22
ENDMDL
MODEL 2
USER: ADFR SOLUTION from run 36
USER: SCORE 13.469433 LL:  -3.398 LR: -11.426 RR:   0.000 FEB:  -4.863
USER: RMSD 2.082428
USER: SEED 35
USER: STATUS no improvement in best 2 clusters for 5 generations
USER: GENES 24
USER: genes 0 Translation |==|  0.45110 0.50922 0.48400
USER: genes 1 Rotation |==|  0.49742 0.48850 0.48464 0.99963
USER: genes 2 Torsion [C]-CA--CB-[CG] |==|  0.18234
USER: genes 3 Torsion [CA]-CB--CG-[CD] |==|  0.49237
USER: genes 4 Torsion [CB]-CG--CD-[OE1] |==|  0.91043
USER: genes 5 Torsion [N]-CA--C-[N] |==|  0.44803
USER: genes 6 Torsion [C]-N--CA-[CB] |==|  0.52778
USER: genes 7 Torsion [N]-CA--CB-[CG] |==|  0.10173
USER: genes 8 Torsion [CA]-CB--CG-[CD] |==|  0.69422
USER: genes 9 Torsion [CB]-CG--CD-[OE1] |==|  0.26460
USER: genes 10 Torsion [N]-CA--C-[N] |==|  0.34669
USER: genes 11 Torsion [C]-N--CA-[C] |==|  0.15101
USER: genes 12 Torsion [N]-CA--C-[OXT] |==|  0.58833
USER: genes 13 Torsion [N]-CA--CB-[CG2] |==|  0.90056
USER: genes 14 Torsion [CA]-CB--CG1-[CD1] |==|  0.47606
USER: genes 15 Torsion [CB]-CA--N-[C] |==|  0.48916
USER: genes 16 Torsion [N]-C--CA-[N] |==|  0.39354
USER: genes 17 Torsion [C]-CA--N-[C] |==|  0.71180
USER: genes 18 Torsion [N]-C--CA-[N] |==|  0.87550
USER: genes 19 Torsion [C]-CA--CB-[CG] |==|  0.18518
USER: genes 20 Torsion [CA]-CB--CG-[OD1] |==|  0.04769
USER: genes 21 Torsion [C]-CA--N-[H3] |==|  0.22356
USER: genes 22 Torsion [C]-CA--CB-[CG] |==|  0.48548
USER: genes 23 Torsion [CA]-CB--CG-[CD1] |==|  0.25496
ROOT
ATOM      1  CA  GLU E  57       6.483  -6.373  -1.290  1.00 37.57 LIG 0.18  C 
ENDROOT
BRANCH 1 2
ATOM      2  CB  GLU E  57       5.444  -5.274  -1.209  1.00 31.17 LIG 0.04  C 
BRANCH 2 3
ATOM      3  CG  GLU E  57       5.182  -4.579  -2.508  1.00 31.87 LIG 0.12  C 
BRANCH 3 4
ATOM      4  CD  GLU E  57       4.098  -3.542  -2.394  1.00 37.45 LIG 0.17  C 
ATOM      5 OE1  GLU E  57       3.167  -3.728  -1.591  1.00 40.31 LIG-0.65  OA
ATOM      6 OE2  GLU E  57       4.163  -2.534  -3.122  1.00 37.89 LIG-0.65  OA
ENDBRANCH 3 4
ENDBRANCH 2 3
ENDBRANCH 1 2
BRANCH 1 7
ATOM      7  C   GLU E  57       7.861  -5.802  -1.621  1.00 41.20 LIG 0.24  C 
ATOM      8  N   GLU E  58       8.031  -5.535  -2.892  1.00 46.60 LIG-0.35  N 
ATOM      9 H    GLU E  58       7.414  -5.672  -3.474  1.00 46.60 LIG 0.16  HD
ATOM     10 O    GLU E  57       8.744  -5.625  -0.785  1.00 39.74 LIG-0.27  OA
BRANCH 8 11
ATOM     11  CA  GLU E  58       9.240  -4.991  -3.476  1.00 48.53 LIG 0.18  C 
BRANCH 11 12
ATOM     12  CB  GLU E  58       8.928  -4.597  -4.938  1.00 56.76 LIG 0.04  C 
BRANCH 12 13
ATOM     13  CG  GLU E  58       7.513  -3.991  -5.307  1.00 68.50 LIG 0.12  C 
BRANCH 13 14
ATOM     14  CD  GLU E  58       6.526  -4.862  -6.158  1.00 69.79 LIG 0.17  C 
ATOM     15 OE2  GLU E  58       6.622  -4.827  -7.409  1.00 69.71 LIG-0.65  OA
ATOM     16 OE1  GLU E  58       5.641  -5.561  -5.608  1.00 71.02 LIG-0.65  OA
ENDBRANCH 13 14
ENDBRANCH 12 13
ENDBRANCH 11 12
BRANCH 11 17
ATOM     17  C   GLU E  58       9.796  -3.853  -2.631  1.00 48.41 LIG 0.24  C 
ATOM     18  N   ILE E  59      11.054  -4.027  -2.263  1.00 45.67 LIG-0.34  N 
ATOM     19 H    ILE E  59      11.527  -4.714  -2.472  1.00 45.67 LIG 0.16  HD
ATOM     20 O    GLU E  58       9.076  -2.916  -2.242  1.00 49.96 LIG-0.27  OA
BRANCH 18 21
ATOM     21  CA  ILE E  59      11.748  -3.045  -1.457  1.00 48.61 LIG 0.19  C 
BRANCH 21 22
ATOM     22  C   ILE E  59      10.946  -2.759  -0.180  1.00 51.92 LIG 0.20  C 
ATOM     23 OXT  ILE E  59      10.986  -1.610   0.339  1.00 54.21 LIG-0.65  OA
ATOM     24 O    ILE E  59      10.290  -3.717   0.297  1.00 54.03 LIG-0.65  OA
ENDBRANCH 21 22
BRANCH 21 25
ATOM     25  CB  ILE E  59      12.041  -1.754  -2.295  1.00 45.36 LIG 0.01  C 
ATOM     26  CG2 ILE E  59      12.358  -2.151  -3.736  1.00 47.34 LIG 0.01  C 
BRANCH 25 27
ATOM     27  CG1 ILE E  59      10.850  -0.807  -2.310  1.00 43.95 LIG 0.00  C 
ATOM     28  CD1 ILE E  59      11.171   0.524  -2.928  1.00 41.62 LIG 0.01  C 
ENDBRANCH 25 27
ENDBRANCH 21 25
ENDBRANCH 18 21
ENDBRANCH 11 17
ENDBRANCH 8 11
ENDBRANCH 1 7
BRANCH 1 29
ATOM     29  N   GLU E  57       6.628  -7.005  -0.004  1.00 40.65 LIG-0.35  N 
ATOM     30  C   PHE E  56       7.416  -8.052   0.201  1.00 43.72 LIG 0.24  C 
ATOM     31 O    PHE E  56       8.041  -8.653  -0.692  1.00 43.94 LIG-0.27  OA
ATOM     32 H    GLU E  57       6.157  -6.640   0.616  1.00 40.65 LIG 0.16  HD
BRANCH 30 33
ATOM     33  CA  PHE E  56       7.438  -8.549   1.646  1.00 42.97 LIG 0.18  C 
BRANCH 33 34
ATOM     34  N   PHE E  56       7.490 -10.001   1.752  1.00 46.55 LIG-0.35  N 
ATOM     35 H    PHE E  56       8.265 -10.335   1.589  1.00 46.55 LIG 0.16  HD
ATOM     36  C   ASP E  55       6.428 -10.732   2.073  1.00 50.93 LIG 0.25  C 
ATOM     37 O    ASP E  55       5.307 -10.260   2.259  1.00 52.54 LIG-0.27  OA
BRANCH 36 38
ATOM     38  CA  ASP E  55       6.690 -12.243   2.138  1.00 54.04 LIG 0.28  C 
BRANCH 38 39
ATOM     39  CB  ASP E  55       7.486 -12.629   3.407  1.00 59.52 LIG 0.15  C 
BRANCH 39 40
ATOM     40  CG  ASP E  55       6.716 -12.416   4.729  1.00 62.29 LIG 0.17  C 
ATOM     41 OD2  ASP E  55       7.391 -12.408   5.775  1.00 64.60 LIG-0.65  OA
ATOM     42 OD1  ASP E  55       5.470 -12.276   4.760  1.00 62.89 LIG-0.65  OA
ENDBRANCH 39 40
ENDBRANCH 38 39
BRANCH 38 43
ATOM     43  N   ASP E  55       7.503 -12.606   0.925  1.00 53.57 LIG-0.07  N 
ATOM     44 H3   ASP E  55       8.359 -12.406   1.069  1.00 53.57 LIG 0.28  HD
ATOM     45 H2   ASP E  55       7.206 -12.149   0.221  1.00 53.57 LIG 0.28  HD
ATOM     46 H1   ASP E  55       7.426 -13.479   0.765  1.00 53.57 LIG 0.28  HD
ENDBRANCH 38 43
ENDBRANCH 36 38
ENDBRANCH 33 34
BRANCH 33 47
ATOM     47  CB  PHE E  56       8.622  -7.924   2.410  1.00 40.20 LIG 0.07  C 
BRANCH 47 48
ATOM     48  CG  PHE E  56       8.650  -8.263   3.889  1.00 37.86 LIG-0.06  A 
ATOM     49  CD1 PHE E  56       9.357  -9.374   4.365  1.00 37.96 LIG 0.01  A 
ATOM     50  CE1 PHE E  56       9.392  -9.700   5.731  1.00 36.63 LIG 0.00  A 
ATOM     51  CZ  PHE E  56       8.702  -8.905   6.634  1.00 33.67 LIG 0.00  A 
ATOM     52  CE2 PHE E  56       7.989  -7.793   6.173  1.00 33.57 LIG 0.00  A 
ATOM     53  CD2 PHE E  56       7.969  -7.477   4.808  1.00 33.78 LIG 0.01  A 
ENDBRANCH 47 48
ENDBRANCH 33 47
ENDBRANCH 30 33
ENDBRANCH 1 29
TORSDOF 22
ENDMDL
MODEL 3
USER: ADFR SOLUTION from run 92
USER: SCORE 14.271503 LL:  -4.776 LR: -10.918 RR:   0.000 FEB:  -4.355
USER: RMSD 2.141899
USER: SEED 91
USER: STATUS no improvement in best 2 clusters for 5 generations
USER: GENES 24
USER: genes 0 Translation |==|  0.44477 0.50329 0.48173
USER: genes 1 Rotation |==|  0.47357 0.50125 0.48825 0.99916
USER: genes 2 Torsion [C]-CA--CB-[CG] |==|  0.13369
USER: genes 3 Torsion [CA]-CB--CG-[CD] |==|  0.49653
USER: genes 4 Torsion [CB]-CG--CD-[OE1] |==|  0.97194
USER: genes 5 Torsion [N]-CA--C-[N] |==|  0.33356
USER: genes 6 Torsion [C]-N--CA-[CB] |==|  0.52556
USER: genes 7 Torsion [N]-CA--CB-[CG] |==|  0.11135
USER: genes 8 Torsion [CA]-CB--CG-[CD] |==|  0.76957
USER: genes 9 Torsion [CB]-CG--CD-[OE1] |==|  0.09984
USER: genes 10 Torsion [N]-CA--C-[N] |==|  0.34436
USER: genes 11 Torsion [C]-N--CA-[C] |==|  0.66448
USER: genes 12 Torsion [N]-CA--C-[OXT] |==|  0.43935
USER: genes 13 Torsion [N]-CA--CB-[CG2] |==|  0.84755
USER: genes 14 Torsion [CA]-CB--CG1-[CD1] |==|  0.48063
USER: genes 15 Torsion [CB]-CA--N-[C] |==|  0.51222
USER: genes 16 Torsion [N]-C--CA-[N] |==|  0.46196
USER: genes 17 Torsion [C]-CA--N-[C] |==|  0.77689
USER: genes 18 Torsion [N]-C--CA-[N] |==|  0.86887
USER: genes 19 Torsion [C]-CA--CB-[CG] |==|  0.76885
USER: genes 20 Torsion [CA]-CB--CG-[OD1] |==|  0.04411
USER: genes 21 Torsion [C]-CA--N-[H3] |==|  0.26231
USER: genes 22 Torsion [C]-CA--CB-[CG] |==|  0.50096
USER: genes 23 Torsion [CA]-CB--CG-[CD1] |==|  0.50504
ROOT
ATOM      1  CA  GLU E  57       6.293  -6.551  -1.358  1.00 37.57 LIG 0.18  C 
ENDROOT
BRANCH 1 2
ATOM      2  CB  GLU E  57       5.244  -5.459  -1.324  1.00 31.17 LIG 0.04  C 
BRANCH 2 3
ATOM      3  CG  GLU E  57       5.194  -4.616  -2.560  1.00 31.87 LIG 0.12  C 
BRANCH 3 4
ATOM      4  CD  GLU E  57       4.119  -3.566  -2.493  1.00 37.45 LIG 0.17  C 
ATOM      5 OE1  GLU E  57       3.288  -3.611  -1.569  1.00 40.31 LIG-0.65  OA
ATOM      6 OE2  GLU E  57       4.091  -2.689  -3.377  1.00 37.89 LIG-0.65  OA
ENDBRANCH 3 4
ENDBRANCH 2 3
ENDBRANCH 1 2
BRANCH 1 7
ATOM      7  C   GLU E  57       7.643  -6.001  -1.816  1.00 41.20 LIG 0.24  C 
ATOM      8  N   GLU E  58       8.111  -6.579  -2.894  1.00 46.60 LIG-0.35  N 
ATOM      9 H    GLU E  58       7.685  -7.207  -3.297  1.00 46.60 LIG 0.16  HD
ATOM     10 O    GLU E  57       8.253  -5.114  -1.224  1.00 39.74 LIG-0.27  OA
BRANCH 8 11
ATOM     11  CA  GLU E  58       9.368  -6.253  -3.536  1.00 48.53 LIG 0.18  C 
BRANCH 11 12
ATOM     12  CB  GLU E  58       9.419  -7.000  -4.889  1.00 56.76 LIG 0.04  C 
BRANCH 12 13
ATOM     13  CG  GLU E  58       8.118  -7.102  -5.784  1.00 68.50 LIG 0.12  C 
BRANCH 13 14
ATOM     14  CD  GLU E  58       7.075  -8.227  -5.461  1.00 69.79 LIG 0.17  C 
ATOM     15 OE2  GLU E  58       6.454  -8.759  -6.412  1.00 69.71 LIG-0.65  OA
ATOM     16 OE1  GLU E  58       6.844  -8.575  -4.278  1.00 71.02 LIG-0.65  OA
ENDBRANCH 13 14
ENDBRANCH 12 13
ENDBRANCH 11 12
BRANCH 11 17
ATOM     17  C   GLU E  58       9.553  -4.746  -3.650  1.00 48.41 LIG 0.24  C 
ATOM     18  N   ILE E  59      10.670  -4.302  -3.097  1.00 45.67 LIG-0.34  N 
ATOM     19 H    ILE E  59      11.246  -4.806  -2.705  1.00 45.67 LIG 0.16  HD
ATOM     20 O    GLU E  58       8.667  -4.012  -4.123  1.00 49.96 LIG-0.27  OA
BRANCH 18 21
ATOM     21  CA  ILE E  59      11.014  -2.897  -3.112  1.00 48.61 LIG 0.19  C 
BRANCH 21 22
ATOM     22  C   ILE E  59      12.358  -2.697  -3.827  1.00 51.92 LIG 0.20  C 
ATOM     23 OXT  ILE E  59      12.646  -1.570  -4.314  1.00 54.21 LIG-0.65  OA
ATOM     24 O    ILE E  59      13.106  -3.702  -3.905  1.00 54.03 LIG-0.65  OA
ENDBRANCH 21 22
BRANCH 21 25
ATOM     25  CB  ILE E  59      11.006  -2.313  -1.659  1.00 45.36 LIG 0.01  C 
ATOM     26  CG2 ILE E  59       9.650  -2.593  -1.012  1.00 47.34 LIG 0.01  C 
BRANCH 25 27
ATOM     27  CG1 ILE E  59      12.088  -2.939  -0.791  1.00 43.95 LIG 0.00  C 
ATOM     28  CD1 ILE E  59      12.211  -2.280   0.554  1.00 41.62 LIG 0.01  C 
ENDBRANCH 25 27
ENDBRANCH 21 25
ENDBRANCH 18 21
ENDBRANCH 11 17
ENDBRANCH 8 11
ENDBRANCH 1 7
BRANCH 1 29
ATOM     29  N   GLU E  57       6.516  -7.058  -0.029  1.00 40.65 LIG-0.35  N 
ATOM     30  C   PHE E  56       7.444  -7.963   0.253  1.00 43.72 LIG 0.24  C 
ATOM     31 O    PHE E  56       8.156  -8.533  -0.593  1.00 43.94 LIG-0.27  OA
ATOM     32 H    GLU E  57       5.992  -6.719   0.563  1.00 40.65 LIG 0.16  HD
BRANCH 30 33
ATOM     33  CA  PHE E  56       7.523  -8.342   1.732  1.00 42.97 LIG 0.18  C 
BRANCH 33 34
ATOM     34  N   PHE E  56       8.309  -9.544   1.974  1.00 46.55 LIG-0.35  N 
ATOM     35 H    PHE E  56       9.112  -9.388   2.238  1.00 46.55 LIG 0.16  HD
ATOM     36  C   ASP E  55       7.819 -10.766   1.799  1.00 50.93 LIG 0.25  C 
ATOM     37 O    ASP E  55       6.685 -10.990   1.375  1.00 52.54 LIG-0.27  OA
BRANCH 36 38
ATOM     38  CA  ASP E  55       8.804 -11.900   2.112  1.00 54.04 LIG 0.28  C 
BRANCH 38 39
ATOM     39  CB  ASP E  55       9.053 -12.034   3.633  1.00 59.52 LIG 0.15  C 
BRANCH 39 40
ATOM     40  CG  ASP E  55      10.117 -11.063   4.190  1.00 62.29 LIG 0.17  C 
ATOM     41 OD2  ASP E  55      10.563 -11.313   5.326  1.00 64.60 LIG-0.65  OA
ATOM     42 OD1  ASP E  55      10.507 -10.059   3.547  1.00 62.89 LIG-0.65  OA
ENDBRANCH 39 40
ENDBRANCH 38 39
BRANCH 38 43
ATOM     43  N   ASP E  55      10.104 -11.560   1.434  1.00 53.57 LIG-0.07  N 
ATOM     44 H3   ASP E  55      10.638 -11.139   2.009  1.00 53.57 LIG 0.28  HD
ATOM     45 H2   ASP E  55       9.945 -11.031   0.736  1.00 53.57 LIG 0.28  HD
ATOM     46 H1   ASP E  55      10.499 -12.308   1.156  1.00 53.57 LIG 0.28  HD
ENDBRANCH 38 43
ENDBRANCH 36 38
ENDBRANCH 33 34
BRANCH 33 47
ATOM     47  CB  PHE E  56       8.090  -7.168   2.556  1.00 40.20 LIG 0.07  C 
BRANCH 47 48
ATOM     48  CG  PHE E  56       8.212  -7.460   4.040  1.00 37.86 LIG-0.06  A 
ATOM     49  CD1 PHE E  56       8.673  -6.488   4.935  1.00 37.96 LIG 0.01  A 
ATOM     50  CE1 PHE E  56       8.790  -6.743   6.312  1.00 36.63 LIG 0.00  A 
ATOM     51  CZ  PHE E  56       8.447  -7.995   6.798  1.00 33.67 LIG 0.00  A 
ATOM     52  CE2 PHE E  56       7.986  -8.978   5.916  1.00 33.57 LIG 0.00  A 
ATOM     53  CD2 PHE E  56       7.868  -8.705   4.546  1.00 33.78 LIG 0.01  A 
ENDBRANCH 47 48
ENDBRANCH 33 47
ENDBRANCH 30 33
ENDBRANCH 1 29
TORSDOF 22
ENDMDL
