MODEL 1
USER: ADFR SOLUTION from run 46
USER: SCORE 13.523897 LL:  -3.298 LR: -10.396 RR:   0.000 FEB:  -8.009
USER: RMSD 1.130667
USER: SEED 45
USER: STATUS 1 or 2 clusters left
USER: GENES 10
USER: genes 0 Translation |==|  0.50062 0.52920 0.52101
USER: genes 1 Rotation |==|  0.44003 0.47062 0.53057 0.99458
USER: genes 2 Torsion [O]-C--CA-[N] |==|  0.94622
USER: genes 3 Torsion [N]-C--CA-[N] |==|  0.36005
USER: genes 4 Torsion [C]-CA--N-[C] |==|  0.63924
USER: genes 5 Torsion [C]-CA--CB-[CG] |==|  0.43751
USER: genes 6 Torsion [CA]-CB--CG-[CD1] |==|  0.84821
USER: genes 7 Torsion [N]-CA--C-[O] |==|  0.97524
USER: genes 8 Torsion [N]-CA--C-[N] |==|  0.45579
USER: genes 9 Torsion [N]-CA--C-[O] |==|  0.39058
ROOT
ATOM      1  C   PRO B1002      19.859  21.876  18.800  1.00 33.09 LIG 0.24  C 
ATOM      2 O    PRO B1002      19.865  21.018  17.912  1.00 32.82 LIG-0.27  OA
ATOM      3  N   PRO B1003      20.080  23.170  18.536  1.00 33.61 LIG-0.34  N 
ATOM      4  CA  PRO B1003      20.347  23.606  17.165  1.00 34.05 LIG 0.18  C 
ATOM      5  CB  PRO B1003      20.338  25.127  17.286  1.00 34.65 LIG 0.04  C 
ATOM      6  CG  PRO B1003      20.874  25.349  18.662  1.00 34.15 LIG 0.02  C 
ATOM      7  CD  PRO B1003      20.128  24.309  19.470  1.00 34.31 LIG 0.13  C 
ENDROOT
BRANCH 1 8
ATOM      8  CA  PRO B1002      19.590  21.494  20.251  1.00 32.09 LIG 0.18  C 
ATOM      9  N   PRO B1002      18.928  20.191  20.277  1.00 31.87 LIG-0.34  N 
ATOM     10  C   PHE B1001      17.617  20.107  20.009  1.00 31.39 LIG 0.24  C 
ATOM     11  CD  PRO B1002      19.854  19.145  20.748  1.00 31.65 LIG 0.13  C 
ATOM     12 O    PHE B1001      16.937  21.103  19.748  1.00 31.36 LIG-0.27  OA
ATOM     13  CG  PRO B1002      21.206  19.835  20.645  1.00 31.59 LIG 0.02  C 
ATOM     14  CB  PRO B1002      20.876  21.240  21.033  1.00 32.35 LIG 0.04  C 
BRANCH 10 15
ATOM     15  CA  PHE B1001      16.990  18.723  20.042  1.00 30.70 LIG 0.18  C 
BRANCH 15 16
ATOM     16  N   PHE B1001      15.786  18.711  20.868  1.00 31.26 LIG-0.35  N 
ATOM     17  C   ACE B1000      15.593  17.800  21.820  1.00 32.54 LIG 0.21  C 
ATOM     18  CH3 ACE B1000      14.145  17.722  22.305  1.00 32.86 LIG 0.12  C 
ATOM     19 O    ACE B1000      16.384  16.875  22.040  1.00 32.71 LIG-0.27  OA
ATOM     20 H    PHE B1001      15.224  19.336  20.684  1.00 31.26 LIG 0.16  HD
ENDBRANCH 15 16
BRANCH 15 21
ATOM     21  CB  PHE B1001      16.676  18.325  18.595  1.00 29.45 LIG 0.07  C 
BRANCH 21 22
ATOM     22  CG  PHE B1001      16.560  16.850  18.375  1.00 29.10 LIG-0.06  A 
ATOM     23  CD2 PHE B1001      15.415  16.312  17.798  1.00 29.14 LIG 0.01  A 
ATOM     24  CE2 PHE B1001      15.299  14.941  17.597  1.00 28.22 LIG 0.00  A 
ATOM     25  CZ  PHE B1001      16.332  14.098  17.974  1.00 28.72 LIG 0.00  A 
ATOM     26  CE1 PHE B1001      17.481  14.628  18.550  1.00 29.15 LIG 0.00  A 
ATOM     27  CD1 PHE B1001      17.590  15.997  18.747  1.00 28.88 LIG 0.01  A 
ENDBRANCH 21 22
ENDBRANCH 15 21
ENDBRANCH 10 15
ENDBRANCH 1 8
BRANCH 4 28
ATOM     28  C   PRO B1003      21.684  23.068  16.655  1.00 33.85 LIG 0.24  C 
ATOM     29 O    PRO B1003      22.465  22.500  17.419  1.00 33.94 LIG-0.27  OA
ATOM     30  N   PRO B1004      21.953  23.222  15.351  1.00 34.14 LIG-0.34  N 
ATOM     31  CA  PRO B1004      23.214  22.741  14.785  1.00 34.66 LIG 0.18  C 
ATOM     32  CD  PRO B1004      21.080  23.773  14.298  1.00 34.36 LIG 0.13  C 
ATOM     33  CB  PRO B1004      22.986  22.875  13.279  1.00 34.44 LIG 0.04  C 
ATOM     34  CG  PRO B1004      22.059  24.043  13.183  1.00 34.41 LIG 0.02  C 
BRANCH 31 35
ATOM     35  C   PRO B1004      24.392  23.577  15.290  1.00 35.04 LIG 0.24  C 
ATOM     36  N   PRO B1005      25.623  23.071  15.130  1.00 35.67 LIG-0.34  N 
ATOM     37  CD  PRO B1005      25.951  21.751  14.563  1.00 35.53 LIG 0.13  C 
ATOM     38  CA  PRO B1005      26.845  23.757  15.567  1.00 36.27 LIG 0.17  C 
ATOM     39  CG  PRO B1005      27.325  21.495  15.129  1.00 36.24 LIG 0.02  C 
ATOM     40  CB  PRO B1005      27.954  22.841  15.057  1.00 36.11 LIG 0.04  C 
ATOM     41 O    PRO B1004      24.201  24.666  15.833  1.00 35.22 LIG-0.27  OA
BRANCH 38 42
ATOM     42  C   PRO B1005      26.968  25.175  15.013  1.00 36.62 LIG 0.22  C 
ATOM     43 O    PRO B1005      27.418  26.062  15.769  1.00 36.45 LIG-0.29  OA
ENDBRANCH 38 42
ENDBRANCH 31 35
ENDBRANCH 4 28
TORSDOF 8
ENDMDL
MODEL 2
USER: ADFR SOLUTION from run 30
USER: SCORE 11.634993 LL:  -2.194 LR:  -9.563 RR:   0.000 FEB:  -7.177
USER: RMSD 1.717385
USER: SEED 29
USER: STATUS no improvement in best 1 clusters for 5 generations
USER: GENES 10
USER: genes 0 Translation |==|  0.48728 0.51364 0.54579
USER: genes 1 Rotation |==|  0.51563 0.53253 0.45875 0.99699
USER: genes 2 Torsion [O]-C--CA-[N] |==|  0.97002
USER: genes 3 Torsion [N]-C--CA-[N] |==|  0.43125
USER: genes 4 Torsion [C]-CA--N-[C] |==|  0.67000
USER: genes 5 Torsion [C]-CA--CB-[CG] |==|  0.39458
USER: genes 6 Torsion [CA]-CB--CG-[CD1] |==|  0.31901
USER: genes 7 Torsion [N]-CA--C-[O] |==|  0.91767
USER: genes 8 Torsion [N]-CA--C-[N] |==|  0.91477
USER: genes 9 Torsion [N]-CA--C-[O] |==|  0.23908
ROOT
ATOM      1  C   PRO B1002      19.458  21.409  19.544  1.00 33.09 LIG 0.24  C 
ATOM      2 O    PRO B1002      19.029  20.918  18.495  1.00 32.82 LIG-0.27  OA
ATOM      3  N   PRO B1003      20.035  22.618  19.575  1.00 33.61 LIG-0.34  N 
ATOM      4  CA  PRO B1003      20.180  23.396  18.343  1.00 34.05 LIG 0.18  C 
ATOM      5  CB  PRO B1003      20.684  24.743  18.852  1.00 34.65 LIG 0.04  C 
ATOM      6  CG  PRO B1003      21.498  24.358  20.044  1.00 34.15 LIG 0.02  C 
ATOM      7  CD  PRO B1003      20.613  23.336  20.723  1.00 34.31 LIG 0.13  C 
ENDROOT
BRANCH 1 8
ATOM      8  CA  PRO B1002      19.344  20.655  20.863  1.00 32.09 LIG 0.18  C 
ATOM      9  N   PRO B1002      18.466  19.502  20.668  1.00 31.87 LIG-0.34  N 
ATOM     10  C   PHE B1001      17.137  19.675  20.648  1.00 31.39 LIG 0.24  C 
ATOM     11  CD  PRO B1002      19.245  18.250  20.653  1.00 31.65 LIG 0.13  C 
ATOM     12 O    PHE B1001      16.619  20.785  20.801  1.00 31.36 LIG-0.27  OA
ATOM     13  CG  PRO B1002      20.670  18.754  20.477  1.00 31.59 LIG 0.02  C 
ATOM     14  CB  PRO B1002      20.663  20.013  21.282  1.00 32.35 LIG 0.04  C 
BRANCH 10 15
ATOM     15  CA  PHE B1001      16.280  18.439  20.431  1.00 30.70 LIG 0.18  C 
BRANCH 15 16
ATOM     16  N   PHE B1001      14.942  18.622  20.990  1.00 31.26 LIG-0.35  N 
ATOM     17  C   ACE B1000      14.471  17.843  21.961  1.00 32.54 LIG 0.21  C 
ATOM     18  CH3 ACE B1000      12.956  17.943  22.142  1.00 32.86 LIG 0.12  C 
ATOM     19 O    ACE B1000      15.101  16.883  22.422  1.00 32.71 LIG-0.27  OA
ATOM     20 H    PHE B1001      14.498  19.269  20.638  1.00 31.26 LIG 0.16  HD
ENDBRANCH 15 16
BRANCH 15 21
ATOM     21  CB  PHE B1001      16.221  18.179  18.922  1.00 29.45 LIG 0.07  C 
BRANCH 21 22
ATOM     22  CG  PHE B1001      16.258  16.731  18.547  1.00 29.10 LIG-0.06  A 
ATOM     23  CD2 PHE B1001      17.390  15.965  18.804  1.00 29.14 LIG 0.01  A 
ATOM     24  CE2 PHE B1001      17.431  14.621  18.453  1.00 28.22 LIG 0.00  A 
ATOM     25  CZ  PHE B1001      16.338  14.033  17.839  1.00 28.72 LIG 0.00  A 
ATOM     26  CE1 PHE B1001      15.201  14.791  17.579  1.00 29.15 LIG 0.00  A 
ATOM     27  CD1 PHE B1001      15.166  16.132  17.933  1.00 28.88 LIG 0.01  A 
ENDBRANCH 21 22
ENDBRANCH 15 21
ENDBRANCH 10 15
ENDBRANCH 1 8
BRANCH 4 28
ATOM     28  C   PRO B1003      21.158  22.734  17.374  1.00 33.85 LIG 0.24  C 
ATOM     29 O    PRO B1003      22.090  22.046  17.792  1.00 33.94 LIG-0.27  OA
ATOM     30  N   PRO B1004      20.944  22.917  16.062  1.00 34.14 LIG-0.34  N 
ATOM     31  CA  PRO B1004      21.838  22.322  15.068  1.00 34.66 LIG 0.18  C 
ATOM     32  CD  PRO B1004      19.819  23.611  15.409  1.00 34.36 LIG 0.13  C 
ATOM     33  CB  PRO B1004      21.090  22.552  13.755  1.00 34.44 LIG 0.04  C 
ATOM     34  CG  PRO B1004      20.344  23.821  14.011  1.00 34.41 LIG 0.02  C 
BRANCH 31 35
ATOM     35  C   PRO B1004      23.213  22.995  15.100  1.00 35.04 LIG 0.24  C 
ATOM     36  N   PRO B1005      23.261  24.288  15.454  1.00 35.67 LIG-0.34  N 
ATOM     37  CD  PRO B1005      22.104  25.146  15.759  1.00 35.53 LIG 0.13  C 
ATOM     38  CA  PRO B1005      24.506  25.063  15.526  1.00 36.27 LIG 0.17  C 
ATOM     39  CG  PRO B1005      22.664  26.527  15.530  1.00 36.24 LIG 0.02  C 
ATOM     40  CB  PRO B1005      24.041  26.407  16.078  1.00 36.11 LIG 0.04  C 
ATOM     41 O    PRO B1004      24.227  22.364  14.798  1.00 35.22 LIG-0.27  OA
BRANCH 38 42
ATOM     42  C   PRO B1005      25.568  24.411  16.410  1.00 36.62 LIG 0.22  C 
ATOM     43 O    PRO B1005      26.318  23.558  15.891  1.00 36.45 LIG-0.29  OA
ENDBRANCH 38 42
ENDBRANCH 31 35
ENDBRANCH 4 28
TORSDOF 8
ENDMDL
