MODEL 1
USER: ADFR SOLUTION from run 16
USER: SCORE 13.514624 LL:  -2.855 LR: -12.291 RR:   0.000 FEB:  -7.518
USER: RMSD 1.816063
USER: SEED 979493
USER: STATUS 1 or 2 clusters left
USER: GENES 18
USER: genes 0 Translation |==|  0.50620 0.48258 0.49850
USER: genes 1 Rotation |==|  0.55393 0.53008 0.49818 0.99617
USER: genes 2 Torsion [C]-CA--CB-[OG] |==|  0.71798
USER: genes 3 Torsion [CA]-CB--OG-[HG] |==|  0.95706
USER: genes 4 Torsion [N]-CA--C-[N] |==|  0.56340
USER: genes 5 Torsion [C]-N--CA-[C] |==|  0.56840
USER: genes 6 Torsion [N]-CA--C-[N] |==|  0.44449
USER: genes 7 Torsion [C]-N--CA-[C] |==|  0.50286
USER: genes 8 Torsion [N]-CA--C-[O] |==|  0.73484
USER: genes 9 Torsion [N]-CA--CB-[CG] |==|  0.79962
USER: genes 10 Torsion [CA]-CB--CG-[CD1] |==|  0.33550
USER: genes 11 Torsion [CB]-CA--N-[C] |==|  0.25273
USER: genes 12 Torsion [N]-C--CA-[N] |==|  0.48167
USER: genes 13 Torsion [C]-CA--N-[C] |==|  0.55536
USER: genes 14 Torsion [N]-C--CA-[N] |==|  0.48880
USER: genes 15 Torsion [C]-CA--N-[H2] |==|  0.78308
USER: genes 16 Torsion [C]-CA--CB-[CG] |==|  0.49285
USER: genes 17 Torsion [CA]-CB--CG-[CD1] |==|  0.33221
ROOT
ATOM      1  CA  SER E  44      26.396  -7.953  18.425  1.00 44.79 LIG 0.20  C 
ENDROOT
BRANCH 1 2
ATOM      2  CB  SER E  44      27.325  -8.884  17.648  1.00 46.10 LIG 0.20  C 
BRANCH 2 3
ATOM      3 OG   SER E  44      26.660  -9.407  16.517  1.00 47.85 LIG-0.40  OA
ATOM      4 HG   SER E  44      25.833  -9.283  16.595  1.00 47.85 LIG 0.21  HD
ENDBRANCH 2 3
ENDBRANCH 1 2
BRANCH 1 5
ATOM      5  C   SER E  44      26.737  -6.513  18.114  1.00 42.78 LIG 0.24  C 
ATOM      6  N   PHE E  45      28.022  -6.274  17.900  1.00 43.36 LIG-0.35  N 
ATOM      7 H    PHE E  45      28.637  -6.874  17.943  1.00 43.36 LIG 0.16  HD
ATOM      8 O    SER E  44      25.873  -5.634  18.095  1.00 37.54 LIG-0.27  OA
BRANCH 6 9
ATOM      9  CA  PHE E  45      28.501  -4.943  17.566  1.00 46.68 LIG 0.18  C 
BRANCH 9 10
ATOM     10  C   PHE E  45      29.812  -5.082  16.806  1.00 48.11 LIG 0.24  C 
ATOM     11 O    PHE E  45      30.473  -6.119  16.880  1.00 49.85 LIG-0.27  OA
ATOM     12  N   GLY E  46      30.194  -4.045  16.072  1.00 50.71 LIG-0.35  N 
ATOM     13 H    GLY E  46      29.762  -3.305  15.997  1.00 50.71 LIG 0.16  HD
BRANCH 12 14
ATOM     14  CA  GLY E  46      31.431  -4.126  15.321  1.00 54.23 LIG 0.21  C 
BRANCH 14 15
ATOM     15  C   GLY E  46      31.735  -2.856  14.559  1.00 55.55 LIG 0.21  C 
ATOM     16 O    GLY E  46      31.386  -2.805  13.364  1.00 59.11 LIG-0.29  OA
ENDBRANCH 14 15
ENDBRANCH 12 14
ENDBRANCH 9 10
BRANCH 9 17
ATOM     17  CB  PHE E  45      28.708  -4.109  18.835  1.00 43.03 LIG 0.07  C 
BRANCH 17 18
ATOM     18  CG  PHE E  45      27.424  -3.679  19.497  1.00 41.93 LIG-0.06  A 
ATOM     19  CD2 PHE E  45      26.477  -2.928  18.801  1.00 42.38 LIG 0.01  A 
ATOM     20  CE2 PHE E  45      25.274  -2.555  19.407  1.00 42.73 LIG 0.00  A 
ATOM     21  CZ  PHE E  45      25.012  -2.933  20.720  1.00 42.74 LIG 0.00  A 
ATOM     22  CE1 PHE E  45      25.948  -3.684  21.424  1.00 41.89 LIG 0.00  A 
ATOM     23  CD1 PHE E  45      27.148  -4.052  20.810  1.00 42.01 LIG 0.01  A 
ENDBRANCH 17 18
ENDBRANCH 9 17
ENDBRANCH 6 9
ENDBRANCH 1 5
BRANCH 1 24
ATOM     24  N   SER E  44      25.014  -8.271  18.135  1.00 46.50 LIG-0.34  N 
ATOM     25  C   PHE E  43      24.403  -9.143  18.907  1.00 47.40 LIG 0.24  C 
ATOM     26 O    PHE E  43      24.982  -9.708  19.831  1.00 45.80 LIG-0.27  OA
ATOM     27 H    SER E  44      24.666  -7.864  17.462  1.00 46.50 LIG 0.16  HD
BRANCH 25 28
ATOM     28  CA  PHE E  43      22.962  -9.462  18.577  1.00 47.87 LIG 0.18  C 
BRANCH 28 29
ATOM     29  N   PHE E  43      22.774 -10.523  19.523  1.00 51.92 LIG-0.35  N 
ATOM     30  C   GLY E  42      21.843 -11.459  19.492  1.00 55.92 LIG 0.24  C 
ATOM     31 O    GLY E  42      20.954 -11.574  18.636  1.00 57.26 LIG-0.27  OA
ATOM     32 H    PHE E  43      23.358 -10.496  20.154  1.00 51.92 LIG 0.16  HD
BRANCH 30 33
ATOM     33  CA  GLY E  42      21.988 -12.411  20.652  1.00 58.33 LIG 0.33  C 
BRANCH 33 34
ATOM     34  N   GLY E  42      20.960 -13.409  20.747  1.00 60.94 LIG-0.07  N 
ATOM     35 H3   GLY E  42      20.778 -13.726  19.936  1.00 60.94 LIG 0.27  HD
ATOM     36 H1   GLY E  42      21.239 -14.074  21.270  1.00 60.94 LIG 0.27  HD
ATOM     37 H2   GLY E  42      20.226 -13.046  21.095  1.00 60.94 LIG 0.27  HD
ENDBRANCH 33 34
ENDBRANCH 30 33
ENDBRANCH 28 29
BRANCH 28 38
ATOM     38  CB  PHE E  43      22.101  -8.248  18.912  1.00 42.32 LIG 0.07  C 
BRANCH 38 39
ATOM     39  CG  PHE E  43      20.626  -8.385  18.580  1.00 35.12 LIG-0.06  A 
ATOM     40  CD1 PHE E  43      19.706  -8.285  19.611  1.00 34.02 LIG 0.01  A 
ATOM     41  CE1 PHE E  43      18.330  -8.368  19.384  1.00 29.46 LIG 0.00  A 
ATOM     42  CZ  PHE E  43      17.847  -8.555  18.094  1.00 28.92 LIG 0.00  A 
ATOM     43  CE2 PHE E  43      18.752  -8.657  17.030  1.00 30.40 LIG 0.00  A 
ATOM     44  CD2 PHE E  43      20.151  -8.573  17.275  1.00 32.72 LIG 0.01  A 
ENDBRANCH 38 39
ENDBRANCH 28 38
ENDBRANCH 25 28
ENDBRANCH 1 24
TORSDOF 16
ENDMDL
MODEL 2
USER: ADFR SOLUTION from run 116
USER: SCORE 12.093789 LL:  -3.328 LR: -11.250 RR:   0.000 FEB:  -6.477
USER: RMSD 1.565889
USER: SEED 115
USER: STATUS 1 or 2 clusters left
USER: GENES 18
USER: genes 0 Translation |==|  0.52016 0.50211 0.50464
USER: genes 1 Rotation |==|  0.51429 0.48922 0.51400 0.99948
USER: genes 2 Torsion [C]-CA--CB-[OG] |==|  0.66994
USER: genes 3 Torsion [CA]-CB--OG-[HG] |==|  0.38389
USER: genes 4 Torsion [N]-CA--C-[N] |==|  0.54444
USER: genes 5 Torsion [C]-N--CA-[C] |==|  0.59148
USER: genes 6 Torsion [N]-CA--C-[N] |==|  0.44774
USER: genes 7 Torsion [C]-N--CA-[C] |==|  0.69163
USER: genes 8 Torsion [N]-CA--C-[O] |==|  0.06946
USER: genes 9 Torsion [N]-CA--CB-[CG] |==|  0.86404
USER: genes 10 Torsion [CA]-CB--CG-[CD1] |==|  0.26703
USER: genes 11 Torsion [CB]-CA--N-[C] |==|  0.41030
USER: genes 12 Torsion [N]-C--CA-[N] |==|  0.09959
USER: genes 13 Torsion [C]-CA--N-[C] |==|  0.57472
USER: genes 14 Torsion [N]-C--CA-[N] |==|  0.80463
USER: genes 15 Torsion [C]-CA--N-[H2] |==|  0.65313
USER: genes 16 Torsion [C]-CA--CB-[CG] |==|  0.45770
USER: genes 17 Torsion [CA]-CB--CG-[CD1] |==|  0.51390
ROOT
ATOM      1  CA  SER E  44      26.815  -7.367  18.609  1.00 44.79 LIG 0.20  C 
ENDROOT
BRANCH 1 2
ATOM      2  CB  SER E  44      27.901  -8.339  18.153  1.00 46.10 LIG 0.20  C 
BRANCH 2 3
ATOM      3 OG   SER E  44      27.350  -9.328  17.308  1.00 47.85 LIG-0.40  OA
ATOM      4 HG   SER E  44      27.870  -9.467  16.663  1.00 47.85 LIG 0.21  HD
ENDBRANCH 2 3
ENDBRANCH 1 2
BRANCH 1 5
ATOM      5  C   SER E  44      27.144  -5.970  18.133  1.00 42.78 LIG 0.24  C 
ATOM      6  N   PHE E  45      28.421  -5.631  18.231  1.00 43.36 LIG-0.35  N 
ATOM      7 H    PHE E  45      29.033  -6.144  18.551  1.00 43.36 LIG 0.16  HD
ATOM      8 O    SER E  44      26.271  -5.207  17.716  1.00 37.54 LIG-0.27  OA
BRANCH 6 9
ATOM      9  CA  PHE E  45      28.895  -4.329  17.790  1.00 46.68 LIG 0.18  C 
BRANCH 9 10
ATOM     10  C   PHE E  45      30.312  -4.491  17.257  1.00 48.11 LIG 0.24  C 
ATOM     11 O    PHE E  45      30.984  -5.481  17.551  1.00 49.85 LIG-0.27  OA
ATOM     12  N   GLY E  46      30.771  -3.526  16.470  1.00 50.71 LIG-0.35  N 
ATOM     13 H    GLY E  46      30.334  -2.821  16.245  1.00 50.71 LIG 0.16  HD
BRANCH 12 14
ATOM     14  CA  GLY E  46      32.111  -3.633  15.927  1.00 54.23 LIG 0.21  C 
BRANCH 14 15
ATOM     15  C   GLY E  46      33.061  -2.615  16.515  1.00 55.55 LIG 0.21  C 
ATOM     16 O    GLY E  46      32.795  -2.166  17.646  1.00 59.11 LIG-0.29  OA
ENDBRANCH 14 15
ENDBRANCH 12 14
ENDBRANCH 9 10
BRANCH 9 17
ATOM     17  CB  PHE E  45      28.877  -3.327  18.949  1.00 43.03 LIG 0.07  C 
BRANCH 17 18
ATOM     18  CG  PHE E  45      27.576  -3.302  19.711  1.00 41.93 LIG-0.06  A 
ATOM     19  CD2 PHE E  45      26.489  -2.564  19.246  1.00 42.38 LIG 0.01  A 
ATOM     20  CE2 PHE E  45      25.274  -2.565  19.938  1.00 42.73 LIG 0.00  A 
ATOM     21  CZ  PHE E  45      25.142  -3.309  21.106  1.00 42.74 LIG 0.00  A 
ATOM     22  CE1 PHE E  45      26.220  -4.051  21.580  1.00 41.89 LIG 0.00  A 
ATOM     23  CD1 PHE E  45      27.430  -4.044  20.881  1.00 42.01 LIG 0.01  A 
ENDBRANCH 17 18
ENDBRANCH 9 17
ENDBRANCH 6 9
ENDBRANCH 1 5
BRANCH 1 24
ATOM     24  N   SER E  44      25.518  -7.818  18.151  1.00 46.50 LIG-0.34  N 
ATOM     25  C   PHE E  43      24.470  -7.559  18.903  1.00 47.40 LIG 0.24  C 
ATOM     26 O    PHE E  43      24.573  -6.984  19.983  1.00 45.80 LIG-0.27  OA
ATOM     27 H    SER E  44      25.507  -8.236  17.400  1.00 46.50 LIG 0.16  HD
BRANCH 25 28
ATOM     28  CA  PHE E  43      23.129  -8.047  18.403  1.00 47.87 LIG 0.18  C 
BRANCH 28 29
ATOM     29  N   PHE E  43      23.575  -9.274  17.809  1.00 51.92 LIG-0.35  N 
ATOM     30  C   GLY E  42      23.010  -9.921  16.806  1.00 55.92 LIG 0.24  C 
ATOM     31 O    GLY E  42      21.980  -9.583  16.208  1.00 57.26 LIG-0.27  OA
ATOM     32 H    PHE E  43      24.289  -9.572  18.186  1.00 51.92 LIG 0.16  HD
BRANCH 30 33
ATOM     33  CA  GLY E  42      23.790 -11.162  16.450  1.00 58.33 LIG 0.33  C 
BRANCH 33 34
ATOM     34  N   GLY E  42      25.061 -10.919  15.828  1.00 60.94 LIG-0.07  N 
ATOM     35 H3   GLY E  42      25.160 -10.047  15.685  1.00 60.94 LIG 0.27  HD
ATOM     36 H1   GLY E  42      25.713 -11.208  16.362  1.00 60.94 LIG 0.27  HD
ATOM     37 H2   GLY E  42      25.100 -11.353  15.052  1.00 60.94 LIG 0.27  HD
ENDBRANCH 33 34
ENDBRANCH 30 33
ENDBRANCH 28 29
BRANCH 28 38
ATOM     38  CB  PHE E  43      22.220  -8.300  19.603  1.00 42.32 LIG 0.07  C 
BRANCH 38 39
ATOM     39  CG  PHE E  43      20.744  -8.445  19.281  1.00 35.12 LIG-0.06  A 
ATOM     40  CD1 PHE E  43      19.849  -8.571  20.332  1.00 34.02 LIG 0.01  A 
ATOM     41  CE1 PHE E  43      18.472  -8.676  20.121  1.00 29.46 LIG 0.00  A 
ATOM     42  CZ  PHE E  43      17.961  -8.654  18.829  1.00 28.92 LIG 0.00  A 
ATOM     43  CE2 PHE E  43      18.840  -8.524  17.745  1.00 30.40 LIG 0.00  A 
ATOM     44  CD2 PHE E  43      20.240  -8.421  17.973  1.00 32.72 LIG 0.01  A 
ENDBRANCH 38 39
ENDBRANCH 28 38
ENDBRANCH 25 28
ENDBRANCH 1 24
TORSDOF 16
ENDMDL
