MODEL 1
USER: ADFR SOLUTION from run 131
USER: SCORE 7.966124 LL:  -1.787 LR:  -6.179 RR:   0.000 FEB:  -2.898
USER: RMSD 2.366802
USER: SEED 130
USER: STATUS no improvement in best 2 clusters for 5 generations
USER: GENES 13
USER: genes 0 Translation |==|  0.53971 0.51365 0.46344
USER: genes 1 Rotation |==|  0.54566 0.44256 0.51363 0.99440
USER: genes 2 Torsion [N]-CA--C-[O] |==|  0.01101
USER: genes 3 Torsion [C]-N--CA-[C] |==|  0.81521
USER: genes 4 Torsion [N]-CA--C-[OXT] |==|  0.39965
USER: genes 5 Torsion [N]-CA--CB-[CG] |==|  0.57231
USER: genes 6 Torsion [CA]-CB--CG-[CD2] |==|  0.03674
USER: genes 7 Torsion [CE2]-CZ--OH-[HH] |==|  0.14150
USER: genes 8 Torsion [N]-C--CA-[N] |==|  0.22584
USER: genes 9 Torsion [C]-CA--CB-[CG] |==|  0.78380
USER: genes 10 Torsion [CA]-CB--CG-[CD1] |==|  0.25842
USER: genes 11 Torsion [CE1]-CZ--OH-[HH] |==|  0.65744
USER: genes 12 Torsion [C]-CA--N-[H2] |==|  0.90363
ROOT
ATOM      1  C   TYR B3001      15.251  33.919  26.873  0.70 44.28 LIG 0.25  C 
ATOM      2 O    TYR B3001      14.355  33.842  26.031  0.70 44.11 LIG-0.27  OA
ATOM      3  N   PRO B3002      15.344  33.066  27.917  0.70 46.07 LIG-0.34  N 
ATOM      4  CA  PRO B3002      14.498  31.906  28.235  0.70 46.91 LIG 0.18  C 
ATOM      5  CB  PRO B3002      15.034  31.453  29.594  0.70 46.92 LIG 0.04  C 
ATOM      6  CG  PRO B3002      15.462  32.724  30.211  0.70 47.16 LIG 0.02  C 
ATOM      7  CD  PRO B3002      16.210  33.374  29.070  0.70 47.04 LIG 0.13  C 
ENDROOT
BRANCH 4 8
ATOM      8  C   PRO B3002      12.985  32.047  28.274  0.70 47.26 LIG 0.24  C 
ATOM      9  N   TYR B3003      12.335  30.972  28.722  0.70 47.47 LIG-0.34  N 
ATOM     10 H    TYR B3003      12.739  30.245  28.940  0.70 47.47 LIG 0.16  HD
ATOM     11 O    PRO B3002      12.443  33.121  27.967  0.70 46.37 LIG-0.27  OA
BRANCH 9 12
ATOM     12  CA  TYR B3003      10.887  30.898  28.896  0.70 47.51 LIG 0.19  C 
BRANCH 12 13
ATOM     13  C   TYR B3003      10.332  31.808  29.981  0.70 47.80 LIG 0.20  C 
ATOM     14 OXT  TYR B3003       9.220  32.336  29.782  0.70 46.55 LIG-0.65  OA
ATOM     15 O    TYR B3003      11.024  32.013  31.002  0.70 50.35 LIG-0.65  OA
ENDBRANCH 12 13
BRANCH 12 16
ATOM     16  CB  TYR B3003      10.468  29.445  29.144  0.70 48.13 LIG 0.07  C 
BRANCH 16 17
ATOM     17  CG  TYR B3003       9.049  29.117  28.736  0.70 49.00 LIG-0.06  A 
ATOM     18  CD2 TYR B3003       8.306  29.995  27.938  0.70 49.34 LIG 0.01  A 
ATOM     19  CE2 TYR B3003       6.995  29.693  27.570  0.70 49.34 LIG 0.04  A 
ATOM     20  CZ  TYR B3003       6.420  28.501  27.998  0.70 49.55 LIG 0.07  A 
ATOM     21  CE1 TYR B3003       7.137  27.619  28.788  0.70 48.63 LIG 0.04  A 
ATOM     22  CD1 TYR B3003       8.444  27.930  29.152  0.70 49.33 LIG 0.01  A 
BRANCH 20 23
ATOM     23 OH   TYR B3003       5.134  28.176  27.618  0.70 50.92 LIG-0.36  OA
ATOM     24 HH   TYR B3003       5.060  28.251  26.785  0.70 50.92 LIG 0.22  HD
ENDBRANCH 20 23
ENDBRANCH 16 17
ENDBRANCH 12 16
ENDBRANCH 9 12
ENDBRANCH 4 8
BRANCH 1 25
ATOM     25  CA  TYR B3001      16.301  35.030  26.802  0.70 43.08 LIG 0.28  C 
BRANCH 25 26
ATOM     26  CB  TYR B3001      15.830  36.189  25.899  0.70 40.59 LIG 0.08  C 
BRANCH 26 27
ATOM     27  CG  TYR B3001      15.962  35.898  24.410  0.70 39.24 LIG-0.06  A 
ATOM     28  CD1 TYR B3001      14.894  35.362  23.685  0.70 40.30 LIG 0.01  A 
ATOM     29  CE1 TYR B3001      15.033  35.017  22.321  0.70 38.36 LIG 0.04  A 
ATOM     30  CZ  TYR B3001      16.252  35.217  21.679  0.70 37.05 LIG 0.07  A 
ATOM     31  CE2 TYR B3001      17.323  35.759  22.381  0.70 37.49 LIG 0.04  A 
ATOM     32  CD2 TYR B3001      17.172  36.097  23.739  0.70 38.19 LIG 0.01  A 
BRANCH 30 33
ATOM     33 OH   TYR B3001      16.412  34.858  20.356  0.70 32.30 LIG-0.36  OA
ATOM     34 HH   TYR B3001      17.054  34.321  20.287  0.70 32.30 LIG 0.22  HD
ENDBRANCH 30 33
ENDBRANCH 26 27
ENDBRANCH 25 26
BRANCH 25 35
ATOM     35  N   TYR B3001      17.494  34.367  26.196  0.70 42.81 LIG-0.07  N 
ATOM     36 H3   TYR B3001      17.425  34.385  25.309  0.70 42.81 LIG 0.28  HD
ATOM     37 H2   TYR B3001      17.538  33.523  26.473  0.70 42.81 LIG 0.28  HD
ATOM     38 H1   TYR B3001      18.231  34.800  26.444  0.70 42.81 LIG 0.28  HD
ENDBRANCH 25 35
ENDBRANCH 1 25
TORSDOF 11
ENDMDL
MODEL 2
USER: ADFR SOLUTION from run 25
USER: SCORE 7.948449 LL:  -1.943 LR:  -6.006 RR:   0.000 FEB:  -2.724
USER: RMSD 3.793842
USER: SEED 24
USER: STATUS 1 or 2 clusters left
USER: GENES 13
USER: genes 0 Translation |==|  0.53893 0.50123 0.47423
USER: genes 1 Rotation |==|  0.55305 0.53261 0.54907 0.99367
USER: genes 2 Torsion [N]-CA--C-[O] |==|  0.75943
USER: genes 3 Torsion [C]-N--CA-[C] |==|  0.21482
USER: genes 4 Torsion [N]-CA--C-[OXT] |==|  0.49615
USER: genes 5 Torsion [N]-CA--CB-[CG] |==|  0.80928
USER: genes 6 Torsion [CA]-CB--CG-[CD2] |==|  0.92867
USER: genes 7 Torsion [CE2]-CZ--OH-[HH] |==|  0.67695
USER: genes 8 Torsion [N]-C--CA-[N] |==|  0.19290
USER: genes 9 Torsion [C]-CA--CB-[CG] |==|  0.75054
USER: genes 10 Torsion [CA]-CB--CG-[CD1] |==|  0.28021
USER: genes 11 Torsion [CE1]-CZ--OH-[HH] |==|  0.61971
USER: genes 12 Torsion [C]-CA--N-[H2] |==|  0.89690
ROOT
ATOM      1  C   TYR B3001      15.228  33.547  27.197  0.70 44.28 LIG 0.25  C 
ATOM      2 O    TYR B3001      14.128  33.292  26.704  0.70 44.11 LIG-0.27  OA
ATOM      3  N   PRO B3002      15.813  32.751  28.119  0.70 46.07 LIG-0.34  N 
ATOM      4  CA  PRO B3002      15.339  31.471  28.664  0.70 46.91 LIG 0.18  C 
ATOM      5  CB  PRO B3002      16.371  31.154  29.747  0.70 46.92 LIG 0.04  C 
ATOM      6  CG  PRO B3002      16.755  32.497  30.227  0.70 47.16 LIG 0.02  C 
ATOM      7  CD  PRO B3002      16.951  33.236  28.923  0.70 47.04 LIG 0.13  C 
ENDROOT
BRANCH 4 8
ATOM      8  C   PRO B3002      13.926  31.348  29.216  0.70 47.26 LIG 0.24  C 
ATOM      9  N   TYR B3003      13.035  30.848  28.359  0.70 47.47 LIG-0.34  N 
ATOM     10 H    TYR B3003      13.236  30.643  27.548  0.70 47.47 LIG 0.16  HD
ATOM     11 O    PRO B3002      13.682  31.638  30.397  0.70 46.37 LIG-0.27  OA
BRANCH 9 12
ATOM     12  CA  TYR B3003      11.634  30.592  28.684  0.70 47.51 LIG 0.19  C 
BRANCH 12 13
ATOM     13  C   TYR B3003      10.754  31.832  28.712  0.70 47.80 LIG 0.20  C 
ATOM     14 OXT  TYR B3003       9.541  31.676  28.958  0.70 46.55 LIG-0.65  OA
ATOM     15 O    TYR B3003      11.272  32.941  28.456  0.70 50.35 LIG-0.65  OA
ENDBRANCH 12 13
BRANCH 12 16
ATOM     16  CB  TYR B3003      11.541  29.833  30.013  0.70 48.13 LIG 0.07  C 
BRANCH 16 17
ATOM     17  CG  TYR B3003      12.057  28.414  29.969  0.70 49.00 LIG-0.06  A 
ATOM     18  CD2 TYR B3003      12.073  27.687  28.772  0.70 49.34 LIG 0.01  A 
ATOM     19  CE2 TYR B3003      12.544  26.375  28.735  0.70 49.34 LIG 0.04  A 
ATOM     20  CZ  TYR B3003      13.010  25.782  29.905  0.70 49.55 LIG 0.07  A 
ATOM     21  CE1 TYR B3003      13.003  26.481  31.098  0.70 48.63 LIG 0.04  A 
ATOM     22  CD1 TYR B3003      12.529  27.790  31.125  0.70 49.33 LIG 0.01  A 
BRANCH 20 23
ATOM     23 OH   TYR B3003      13.505  24.494  29.878  0.70 50.92 LIG-0.36  OA
ATOM     24 HH   TYR B3003      13.018  23.996  30.348  0.70 50.92 LIG 0.22  HD
ENDBRANCH 20 23
ENDBRANCH 16 17
ENDBRANCH 12 16
ENDBRANCH 9 12
ENDBRANCH 4 8
BRANCH 1 25
ATOM     25  CA  TYR B3001      15.983  34.820  26.814  0.70 43.08 LIG 0.28  C 
BRANCH 25 26
ATOM     26  CB  TYR B3001      15.127  35.728  25.907  0.70 40.59 LIG 0.08  C 
BRANCH 26 27
ATOM     27  CG  TYR B3001      15.295  35.443  24.421  0.70 39.24 LIG-0.06  A 
ATOM     28  CD1 TYR B3001      14.346  34.693  23.721  0.70 40.30 LIG 0.01  A 
ATOM     29  CE1 TYR B3001      14.534  34.359  22.360  0.70 38.36 LIG 0.04  A 
ATOM     30  CZ  TYR B3001      15.681  34.785  21.695  0.70 37.05 LIG 0.07  A 
ATOM     31  CE2 TYR B3001      16.631  35.541  22.372  0.70 37.49 LIG 0.04  A 
ATOM     32  CD2 TYR B3001      16.433  35.866  23.727  0.70 38.19 LIG 0.01  A 
BRANCH 30 33
ATOM     33 OH   TYR B3001      15.892  34.441  20.375  0.70 32.30 LIG-0.36  OA
ATOM     34 HH   TYR B3001      16.693  34.213  20.270  0.70 32.30 LIG 0.22  HD
ENDBRANCH 30 33
ENDBRANCH 26 27
ENDBRANCH 25 26
BRANCH 25 35
ATOM     35  N   TYR B3001      17.173  34.327  26.059  0.70 42.81 LIG-0.07  N 
ATOM     36 H3   TYR B3001      16.946  34.174  25.212  0.70 42.81 LIG 0.28  HD
ATOM     37 H2   TYR B3001      17.467  33.573  26.427  0.70 42.81 LIG 0.28  HD
ATOM     38 H1   TYR B3001      17.817  34.941  26.086  0.70 42.81 LIG 0.28  HD
ENDBRANCH 25 35
ENDBRANCH 1 25
TORSDOF 11
ENDMDL
MODEL 3
USER: ADFR SOLUTION from run 70
USER: SCORE 7.430483 LL:  -1.660 LR:  -5.771 RR:   0.000 FEB:  -2.490
USER: RMSD 3.582286
USER: SEED 69
USER: STATUS no improvement in best 4 clusters for 5 generations
USER: GENES 13
USER: genes 0 Translation |==|  0.54922 0.50209 0.46490
USER: genes 1 Rotation |==|  0.60929 0.54090 0.54658 0.98396
USER: genes 2 Torsion [N]-CA--C-[O] |==|  0.03976
USER: genes 3 Torsion [C]-N--CA-[C] |==|  0.78767
USER: genes 4 Torsion [N]-CA--C-[OXT] |==|  0.43806
USER: genes 5 Torsion [N]-CA--CB-[CG] |==|  0.63194
USER: genes 6 Torsion [CA]-CB--CG-[CD2] |==|  0.92638
USER: genes 7 Torsion [CE2]-CZ--OH-[HH] |==|  0.80960
USER: genes 8 Torsion [N]-C--CA-[N] |==|  0.16303
USER: genes 9 Torsion [C]-CA--CB-[CG] |==|  0.77414
USER: genes 10 Torsion [CA]-CB--CG-[CD1] |==|  0.27172
USER: genes 11 Torsion [CE1]-CZ--OH-[HH] |==|  0.70353
USER: genes 12 Torsion [C]-CA--N-[H2] |==|  0.59117
ROOT
ATOM      1  C   TYR B3001      15.536  33.573  26.917  0.70 44.28 LIG 0.25  C 
ATOM      2 O    TYR B3001      14.405  33.445  26.447  0.70 44.11 LIG-0.27  OA
ATOM      3  N   PRO B3002      16.153  32.586  27.605  0.70 46.07 LIG-0.34  N 
ATOM      4  CA  PRO B3002      15.680  31.222  27.882  0.70 46.91 LIG 0.18  C 
ATOM      5  CB  PRO B3002      16.764  30.663  28.804  0.70 46.92 LIG 0.04  C 
ATOM      6  CG  PRO B3002      17.206  31.862  29.544  0.70 47.16 LIG 0.02  C 
ATOM      7  CD  PRO B3002      17.345  32.870  28.425  0.70 47.04 LIG 0.13  C 
ENDROOT
BRANCH 4 8
ATOM      8  C   PRO B3002      14.299  30.995  28.476  0.70 47.26 LIG 0.24  C 
ATOM      9  N   TYR B3003      14.117  29.792  29.022  0.70 47.47 LIG-0.34  N 
ATOM     10 H    TYR B3003      14.723  29.181  29.008  0.70 47.47 LIG 0.16  HD
ATOM     11 O    PRO B3002      13.459  31.909  28.490  0.70 46.37 LIG-0.27  OA
BRANCH 9 12
ATOM     12  CA  TYR B3003      12.892  29.371  29.696  0.70 47.51 LIG 0.19  C 
BRANCH 12 13
ATOM     13  C   TYR B3003      12.716  29.935  31.098  0.70 47.80 LIG 0.20  C 
ATOM     14 OXT  TYR B3003      11.559  29.983  31.561  0.70 46.55 LIG-0.65  OA
ATOM     15 O    TYR B3003      13.725  30.354  31.707  0.70 50.35 LIG-0.65  OA
ENDBRANCH 12 13
BRANCH 12 16
ATOM     16  CB  TYR B3003      12.811  27.840  29.716  0.70 48.13 LIG 0.07  C 
BRANCH 16 17
ATOM     17  CG  TYR B3003      11.477  27.272  29.291  0.70 49.00 LIG-0.06  A 
ATOM     18  CD2 TYR B3003      10.296  28.010  29.441  0.70 49.34 LIG 0.01  A 
ATOM     19  CE2 TYR B3003       9.065  27.480  29.054  0.70 49.34 LIG 0.04  A 
ATOM     20  CZ  TYR B3003       9.011  26.202  28.507  0.70 49.55 LIG 0.07  A 
ATOM     21  CE1 TYR B3003      10.166  25.455  28.350  0.70 48.63 LIG 0.04  A 
ATOM     22  CD1 TYR B3003      11.389  25.992  28.741  0.70 49.33 LIG 0.01  A 
BRANCH 20 23
ATOM     23 OH   TYR B3003       7.804  25.676  28.093  0.70 50.92 LIG-0.36  OA
ATOM     24 HH   TYR B3003       7.318  25.529  28.763  0.70 50.92 LIG 0.22  HD
ENDBRANCH 20 23
ENDBRANCH 16 17
ENDBRANCH 12 16
ENDBRANCH 9 12
ENDBRANCH 4 8
BRANCH 1 25
ATOM     25  CA  TYR B3001      16.299  34.891  26.779  0.70 43.08 LIG 0.28  C 
BRANCH 25 26
ATOM     26  CB  TYR B3001      15.518  35.902  25.914  0.70 40.59 LIG 0.08  C 
BRANCH 26 27
ATOM     27  CG  TYR B3001      15.682  35.682  24.416  0.70 39.24 LIG-0.06  A 
ATOM     28  CD1 TYR B3001      14.720  34.981  23.684  0.70 40.30 LIG 0.01  A 
ATOM     29  CE1 TYR B3001      14.903  34.705  22.309  0.70 38.36 LIG 0.04  A 
ATOM     30  CZ  TYR B3001      16.057  35.140  21.664  0.70 37.05 LIG 0.07  A 
ATOM     31  CE2 TYR B3001      17.021  35.848  22.374  0.70 37.49 LIG 0.04  A 
ATOM     32  CD2 TYR B3001      16.828  36.115  23.743  0.70 38.19 LIG 0.01  A 
BRANCH 30 33
ATOM     33 OH   TYR B3001      16.263  34.852  20.330  0.70 32.30 LIG-0.36  OA
ATOM     34 HH   TYR B3001      16.855  34.260  20.258  0.70 32.30 LIG 0.22  HD
ENDBRANCH 30 33
ENDBRANCH 26 27
ENDBRANCH 25 26
BRANCH 25 35
ATOM     35  N   TYR B3001      17.569  34.510  26.092  0.70 42.81 LIG-0.07  N 
ATOM     36 H3   TYR B3001      17.764  33.662  26.278  0.70 42.81 LIG 0.28  HD
ATOM     37 H2   TYR B3001      18.229  35.035  26.376  0.70 42.81 LIG 0.28  HD
ATOM     38 H1   TYR B3001      17.471  34.606  25.213  0.70 42.81 LIG 0.28  HD
ENDBRANCH 25 35
ENDBRANCH 1 25
TORSDOF 11
ENDMDL
MODEL 4
USER: ADFR SOLUTION from run 114
USER: SCORE 7.062216 LL:  -1.746 LR:  -5.316 RR:   0.000 FEB:  -2.034
USER: RMSD 2.516318
USER: SEED 113
USER: STATUS no improvement in best 5 clusters for 5 generations
USER: GENES 13
USER: genes 0 Translation |==|  0.54076 0.51699 0.46582
USER: genes 1 Rotation |==|  0.52043 0.53438 0.54681 0.99620
USER: genes 2 Torsion [N]-CA--C-[O] |==|  0.52049
USER: genes 3 Torsion [C]-N--CA-[C] |==|  0.24174
USER: genes 4 Torsion [N]-CA--C-[OXT] |==|  0.50830
USER: genes 5 Torsion [N]-CA--CB-[CG] |==|  0.64084
USER: genes 6 Torsion [CA]-CB--CG-[CD2] |==|  0.99483
USER: genes 7 Torsion [CE2]-CZ--OH-[HH] |==|  0.85497
USER: genes 8 Torsion [N]-C--CA-[N] |==|  0.19794
USER: genes 9 Torsion [C]-CA--CB-[CG] |==|  0.74661
USER: genes 10 Torsion [CA]-CB--CG-[CD1] |==|  0.26703
USER: genes 11 Torsion [CE1]-CZ--OH-[HH] |==|  0.66188
USER: genes 12 Torsion [C]-CA--N-[H2] |==|  0.91275
ROOT
ATOM      1  C   TYR B3001      15.283  34.020  26.945  0.70 44.28 LIG 0.25  C 
ATOM      2 O    TYR B3001      14.185  33.703  26.483  0.70 44.11 LIG-0.27  OA
ATOM      3  N   PRO B3002      15.862  33.351  27.966  0.70 46.07 LIG-0.34  N 
ATOM      4  CA  PRO B3002      15.383  32.154  28.672  0.70 46.91 LIG 0.18  C 
ATOM      5  CB  PRO B3002      16.409  31.982  29.793  0.70 46.92 LIG 0.04  C 
ATOM      6  CG  PRO B3002      16.793  33.375  30.094  0.70 47.16 LIG 0.02  C 
ATOM      7  CD  PRO B3002      16.996  33.937  28.706  0.70 47.04 LIG 0.13  C 
ENDROOT
BRANCH 4 8
ATOM      8  C   PRO B3002      13.968  32.104  29.227  0.70 47.26 LIG 0.24  C 
ATOM      9  N   TYR B3003      13.177  33.101  28.826  0.70 47.47 LIG-0.34  N 
ATOM     10 H    TYR B3003      13.456  33.739  28.321  0.70 47.47 LIG 0.16  HD
ATOM     11 O    PRO B3002      13.601  31.156  29.939  0.70 46.37 LIG-0.27  OA
BRANCH 9 12
ATOM     12  CA  TYR B3003      11.768  33.229  29.188  0.70 47.51 LIG 0.19  C 
BRANCH 12 13
ATOM     13  C   TYR B3003      11.516  33.955  30.501  0.70 47.80 LIG 0.20  C 
ATOM     14 OXT  TYR B3003      10.336  34.048  30.894  0.70 46.55 LIG-0.65  OA
ATOM     15 O    TYR B3003      12.489  34.453  31.107  0.70 50.35 LIG-0.65  OA
ENDBRANCH 12 13
BRANCH 12 16
ATOM     16  CB  TYR B3003      11.106  31.847  29.200  0.70 48.13 LIG 0.07  C 
BRANCH 16 17
ATOM     17  CG  TYR B3003       9.824  31.753  28.405  0.70 49.00 LIG-0.06  A 
ATOM     18  CD2 TYR B3003       9.291  32.874  27.757  0.70 49.34 LIG 0.01  A 
ATOM     19  CE2 TYR B3003       8.104  32.785  27.030  0.70 49.34 LIG 0.04  A 
ATOM     20  CZ  TYR B3003       7.443  31.563  26.945  0.70 49.55 LIG 0.07  A 
ATOM     21  CE1 TYR B3003       7.952  30.443  27.578  0.70 48.63 LIG 0.04  A 
ATOM     22  CD1 TYR B3003       9.136  30.542  28.303  0.70 49.33 LIG 0.01  A 
BRANCH 20 23
ATOM     23 OH   TYR B3003       6.282  31.454  26.206  0.70 50.92 LIG-0.36  OA
ATOM     24 HH   TYR B3003       5.740  32.049  26.446  0.70 50.92 LIG 0.22  HD
ENDBRANCH 20 23
ENDBRANCH 16 17
ENDBRANCH 12 16
ENDBRANCH 9 12
ENDBRANCH 4 8
BRANCH 1 25
ATOM     25  CA  TYR B3001      16.041  35.232  26.402  0.70 43.08 LIG 0.28  C 
BRANCH 25 26
ATOM     26  CB  TYR B3001      15.175  36.039  25.413  0.70 40.59 LIG 0.08  C 
BRANCH 26 27
ATOM     27  CG  TYR B3001      15.335  35.605  23.963  0.70 39.24 LIG-0.06  A 
ATOM     28  CD1 TYR B3001      14.439  34.705  23.379  0.70 40.30 LIG 0.01  A 
ATOM     29  CE1 TYR B3001      14.626  34.238  22.057  0.70 38.36 LIG 0.04  A 
ATOM     30  CZ  TYR B3001      15.717  34.682  21.315  0.70 37.05 LIG 0.07  A 
ATOM     31  CE2 TYR B3001      16.613  35.585  21.876  0.70 37.49 LIG 0.04  A 
ATOM     32  CD2 TYR B3001      16.417  36.041  23.193  0.70 38.19 LIG 0.01  A 
BRANCH 30 33
ATOM     33 OH   TYR B3001      15.929  34.212  20.035  0.70 32.30 LIG-0.36  OA
ATOM     34 HH   TYR B3001      16.686  33.849  19.990  0.70 32.30 LIG 0.22  HD
ENDBRANCH 30 33
ENDBRANCH 26 27
ENDBRANCH 25 26
BRANCH 25 35
ATOM     35  N   TYR B3001      17.211  34.641  25.686  0.70 42.81 LIG-0.07  N 
ATOM     36 H3   TYR B3001      16.987  34.471  24.841  0.70 42.81 LIG 0.28  HD
ATOM     37 H2   TYR B3001      17.454  33.885  26.087  0.70 42.81 LIG 0.28  HD
ATOM     38 H1   TYR B3001      17.890  35.216  25.702  0.70 42.81 LIG 0.28  HD
ENDBRANCH 25 35
ENDBRANCH 1 25
TORSDOF 11
ENDMDL
MODEL 5
USER: ADFR SOLUTION from run 84
USER: SCORE 6.922342 LL:  -1.799 LR:  -5.123 RR:   0.000 FEB:  -1.842
USER: RMSD 1.925688
USER: SEED 83
USER: STATUS searching
USER: GENES 13
USER: genes 0 Translation |==|  0.58754 0.52562 0.45240
USER: genes 1 Rotation |==|  0.61196 0.45597 0.45465 0.98319
USER: genes 2 Torsion [N]-CA--C-[O] |==|  0.09923
USER: genes 3 Torsion [C]-N--CA-[C] |==|  0.76191
USER: genes 4 Torsion [N]-CA--C-[OXT] |==|  0.41516
USER: genes 5 Torsion [N]-CA--CB-[CG] |==|  0.58908
USER: genes 6 Torsion [CA]-CB--CG-[CD2] |==|  0.53306
USER: genes 7 Torsion [CE2]-CZ--OH-[HH] |==|  0.79673
USER: genes 8 Torsion [N]-C--CA-[N] |==|  0.18489
USER: genes 9 Torsion [C]-CA--CB-[CG] |==|  0.75512
USER: genes 10 Torsion [CA]-CB--CG-[CD1] |==|  0.25557
USER: genes 11 Torsion [CE1]-CZ--OH-[HH] |==|  0.85995
USER: genes 12 Torsion [C]-CA--N-[H2] |==|  0.88714
ROOT
ATOM      1  C   TYR B3001      16.686  34.279  26.542  0.70 44.28 LIG 0.25  C 
ATOM      2 O    TYR B3001      15.755  34.617  25.810  0.70 44.11 LIG-0.27  OA
ATOM      3  N   PRO B3002      16.650  33.153  27.290  0.70 46.07 LIG-0.34  N 
ATOM      4  CA  PRO B3002      15.602  32.126  27.357  0.70 46.91 LIG 0.18  C 
ATOM      5  CB  PRO B3002      16.096  31.203  28.472  0.70 46.92 LIG 0.04  C 
ATOM      6  CG  PRO B3002      16.803  32.136  29.372  0.70 47.16 LIG 0.02  C 
ATOM      7  CD  PRO B3002      17.614  32.945  28.386  0.70 47.04 LIG 0.13  C 
ENDROOT
BRANCH 4 8
ATOM      8  C   PRO B3002      14.152  32.523  27.592  0.70 47.26 LIG 0.24  C 
ATOM      9  N   TYR B3003      13.473  31.706  28.398  0.70 47.47 LIG-0.34  N 
ATOM     10 H    TYR B3003      13.819  30.992  28.731  0.70 47.47 LIG 0.16  HD
ATOM     11 O    PRO B3002      13.698  33.570  27.105  0.70 46.37 LIG-0.27  OA
BRANCH 9 12
ATOM     12  CA  TYR B3003      12.087  31.917  28.806  0.70 47.51 LIG 0.19  C 
BRANCH 12 13
ATOM     13  C   TYR B3003      11.915  32.815  30.021  0.70 47.80 LIG 0.20  C 
ATOM     14 OXT  TYR B3003      10.875  33.501  30.092  0.70 46.55 LIG-0.65  OA
ATOM     15 O    TYR B3003      12.831  32.855  30.871  0.70 50.35 LIG-0.65  OA
ENDBRANCH 12 13
BRANCH 12 16
ATOM     16  CB  TYR B3003      11.401  30.565  29.033  0.70 48.13 LIG 0.07  C 
BRANCH 16 17
ATOM     17  CG  TYR B3003       9.924  30.543  28.712  0.70 49.00 LIG-0.06  A 
ATOM     18  CD2 TYR B3003       9.117  29.466  29.097  0.70 49.34 LIG 0.01  A 
ATOM     19  CE2 TYR B3003       7.755  29.446  28.793  0.70 49.34 LIG 0.04  A 
ATOM     20  CZ  TYR B3003       7.193  30.513  28.101  0.70 49.55 LIG 0.07  A 
ATOM     21  CE1 TYR B3003       7.973  31.587  27.710  0.70 48.63 LIG 0.04  A 
ATOM     22  CD1 TYR B3003       9.330  31.597  28.016  0.70 49.33 LIG 0.01  A 
BRANCH 20 23
ATOM     23 OH   TYR B3003       5.842  30.520  27.818  0.70 50.92 LIG-0.36  OA
ATOM     24 HH   TYR B3003       5.680  29.965  27.208  0.70 50.92 LIG 0.22  HD
ENDBRANCH 20 23
ENDBRANCH 16 17
ENDBRANCH 12 16
ENDBRANCH 9 12
ENDBRANCH 4 8
BRANCH 1 25
ATOM     25  CA  TYR B3001      17.936  35.150  26.675  0.70 43.08 LIG 0.28  C 
BRANCH 25 26
ATOM     26  CB  TYR B3001      17.797  36.456  25.866  0.70 40.59 LIG 0.08  C 
BRANCH 26 27
ATOM     27  CG  TYR B3001      18.258  36.334  24.421  0.70 39.24 LIG-0.06  A 
ATOM     28  CD1 TYR B3001      17.358  35.997  23.406  0.70 40.30 LIG 0.01  A 
ATOM     29  CE1 TYR B3001      17.793  35.805  22.074  0.70 38.36 LIG 0.04  A 
ATOM     30  CZ  TYR B3001      19.140  35.958  21.758  0.70 37.05 LIG 0.07  A 
ATOM     31  CE2 TYR B3001      20.049  36.303  22.753  0.70 37.49 LIG 0.04  A 
ATOM     32  CD2 TYR B3001      19.604  36.489  24.075  0.70 38.19 LIG 0.01  A 
BRANCH 30 33
ATOM     33 OH   TYR B3001      19.584  35.745  20.469  0.70 32.30 LIG-0.36  OA
ATOM     34 HH   TYR B3001      19.301  35.004  20.193  0.70 32.30 LIG 0.22  HD
ENDBRANCH 30 33
ENDBRANCH 26 27
ENDBRANCH 25 26
BRANCH 25 35
ATOM     35  N   TYR B3001      19.030  34.311  26.100  0.70 42.81 LIG-0.07  N 
ATOM     36 H3   TYR B3001      19.001  34.354  25.212  0.70 42.81 LIG 0.28  HD
ATOM     37 H2   TYR B3001      18.925  33.467  26.360  0.70 42.81 LIG 0.28  HD
ATOM     38 H1   TYR B3001      19.817  34.614  26.386  0.70 42.81 LIG 0.28  HD
ENDBRANCH 25 35
ENDBRANCH 1 25
TORSDOF 11
ENDMDL
MODEL 6
USER: ADFR SOLUTION from run 70
USER: SCORE 6.682836 LL:  -1.827 LR:  -4.856 RR:   0.000 FEB:  -1.574
USER: RMSD 3.027373
USER: SEED 69
USER: STATUS no improvement in best 4 clusters for 5 generations
USER: GENES 13
USER: genes 0 Translation |==|  0.54981 0.50353 0.46604
USER: genes 1 Rotation |==|  0.60297 0.54246 0.54072 0.98573
USER: genes 2 Torsion [N]-CA--C-[O] |==|  0.03975
USER: genes 3 Torsion [C]-N--CA-[C] |==|  0.56196
USER: genes 4 Torsion [N]-CA--C-[OXT] |==|  0.44216
USER: genes 5 Torsion [N]-CA--CB-[CG] |==|  0.63159
USER: genes 6 Torsion [CA]-CB--CG-[CD2] |==|  0.12630
USER: genes 7 Torsion [CE2]-CZ--OH-[HH] |==|  0.80960
USER: genes 8 Torsion [N]-C--CA-[N] |==|  0.16303
USER: genes 9 Torsion [C]-CA--CB-[CG] |==|  0.77414
USER: genes 10 Torsion [CA]-CB--CG-[CD1] |==|  0.27137
USER: genes 11 Torsion [CE1]-CZ--OH-[HH] |==|  0.70080
USER: genes 12 Torsion [C]-CA--N-[H2] |==|  0.59118
ROOT
ATOM      1  C   TYR B3001      15.554  33.616  26.951  0.70 44.28 LIG 0.25  C 
ATOM      2 O    TYR B3001      14.417  33.497  26.494  0.70 44.11 LIG-0.27  OA
ATOM      3  N   PRO B3002      16.158  32.637  27.662  0.70 46.07 LIG-0.34  N 
ATOM      4  CA  PRO B3002      15.660  31.291  27.982  0.70 46.91 LIG 0.18  C 
ATOM      5  CB  PRO B3002      16.740  30.737  28.911  0.70 46.92 LIG 0.04  C 
ATOM      6  CG  PRO B3002      17.213  31.948  29.613  0.70 47.16 LIG 0.02  C 
ATOM      7  CD  PRO B3002      17.362  32.920  28.465  0.70 47.04 LIG 0.13  C 
ENDROOT
BRANCH 4 8
ATOM      8  C   PRO B3002      14.279  31.109  28.593  0.70 47.26 LIG 0.24  C 
ATOM      9  N   TYR B3003      14.078  29.926  29.174  0.70 47.47 LIG-0.34  N 
ATOM     10 H    TYR B3003      14.672  29.303  29.174  0.70 47.47 LIG 0.16  HD
ATOM     11 O    PRO B3002      13.458  32.040  28.588  0.70 46.37 LIG-0.27  OA
BRANCH 9 12
ATOM     12  CA  TYR B3003      12.851  29.548  29.871  0.70 47.51 LIG 0.19  C 
BRANCH 12 13
ATOM     13  C   TYR B3003      13.018  28.423  30.880  0.70 47.80 LIG 0.20  C 
ATOM     14 OXT  TYR B3003      12.154  28.313  31.773  0.70 46.55 LIG-0.65  OA
ATOM     15 O    TYR B3003      14.022  27.684  30.794  0.70 50.35 LIG-0.65  OA
ENDBRANCH 12 13
BRANCH 12 16
ATOM     16  CB  TYR B3003      11.762  29.201  28.850  0.70 48.13 LIG 0.07  C 
BRANCH 16 17
ATOM     17  CG  TYR B3003      10.419  29.843  29.116  0.70 49.00 LIG-0.06  A 
ATOM     18  CD2 TYR B3003      10.320  31.198  29.455  0.70 49.34 LIG 0.01  A 
ATOM     19  CE2 TYR B3003       9.080  31.785  29.706  0.70 49.34 LIG 0.04  A 
ATOM     20  CZ  TYR B3003       7.925  31.013  29.614  0.70 49.55 LIG 0.07  A 
ATOM     21  CE1 TYR B3003       8.001  29.673  29.282  0.70 48.63 LIG 0.04  A 
ATOM     22  CD1 TYR B3003       9.243  29.095  29.034  0.70 49.33 LIG 0.01  A 
BRANCH 20 23
ATOM     23 OH   TYR B3003       6.689  31.588  29.833  0.70 50.92 LIG-0.36  OA
ATOM     24 HH   TYR B3003       6.617  31.798  30.643  0.70 50.92 LIG 0.22  HD
ENDBRANCH 20 23
ENDBRANCH 16 17
ENDBRANCH 12 16
ENDBRANCH 9 12
ENDBRANCH 4 8
BRANCH 1 25
ATOM     25  CA  TYR B3001      16.341  34.915  26.770  0.70 43.08 LIG 0.28  C 
BRANCH 25 26
ATOM     26  CB  TYR B3001      15.574  35.916  25.882  0.70 40.59 LIG 0.08  C 
BRANCH 26 27
ATOM     27  CG  TYR B3001      15.720  35.649  24.390  0.70 39.24 LIG-0.06  A 
ATOM     28  CD1 TYR B3001      14.740  34.945  23.686  0.70 40.30 LIG 0.01  A 
ATOM     29  CE1 TYR B3001      14.906  34.627  22.318  0.70 38.36 LIG 0.04  A 
ATOM     30  CZ  TYR B3001      16.062  35.023  21.652  0.70 37.05 LIG 0.07  A 
ATOM     31  CE2 TYR B3001      17.044  35.733  22.333  0.70 37.49 LIG 0.04  A 
ATOM     32  CD2 TYR B3001      16.868  36.043  23.695  0.70 38.19 LIG 0.01  A 
BRANCH 30 33
ATOM     33 OH   TYR B3001      16.251  34.693  20.325  0.70 32.30 LIG-0.36  OA
ATOM     34 HH   TYR B3001      16.841  34.098  20.264  0.70 32.30 LIG 0.22  HD
ENDBRANCH 30 33
ENDBRANCH 26 27
ENDBRANCH 25 26
BRANCH 25 35
ATOM     35  N   TYR B3001      17.598  34.489  26.084  0.70 42.81 LIG-0.07  N 
ATOM     36 H3   TYR B3001      17.778  33.642  26.292  0.70 42.81 LIG 0.28  HD
ATOM     37 H2   TYR B3001      18.270  35.008  26.347  0.70 42.81 LIG 0.28  HD
ATOM     38 H1   TYR B3001      17.494  34.561  25.203  0.70 42.81 LIG 0.28  HD
ENDBRANCH 25 35
ENDBRANCH 1 25
TORSDOF 11
ENDMDL
MODEL 7
USER: ADFR SOLUTION from run 72
USER: SCORE 7.054755 LL:  -2.288 LR:  -4.767 RR:   0.000 FEB:  -1.485
USER: RMSD 2.318354
USER: SEED 71
USER: STATUS searching
USER: GENES 13
USER: genes 0 Translation |==|  0.54767 0.52134 0.44906
USER: genes 1 Rotation |==|  0.54193 0.50756 0.56049 0.99450
USER: genes 2 Torsion [N]-CA--C-[O] |==|  0.45501
USER: genes 3 Torsion [C]-N--CA-[C] |==|  0.51632
USER: genes 4 Torsion [N]-CA--C-[OXT] |==|  0.50772
USER: genes 5 Torsion [N]-CA--CB-[CG] |==|  0.66772
USER: genes 6 Torsion [CA]-CB--CG-[CD2] |==|  0.00440
USER: genes 7 Torsion [CE2]-CZ--OH-[HH] |==|  0.84061
USER: genes 8 Torsion [N]-C--CA-[N] |==|  0.19414
USER: genes 9 Torsion [C]-CA--CB-[CG] |==|  0.78249
USER: genes 10 Torsion [CA]-CB--CG-[CD1] |==|  0.25382
USER: genes 11 Torsion [CE1]-CZ--OH-[HH] |==|  0.66496
USER: genes 12 Torsion [C]-CA--N-[H2] |==|  0.86370
ROOT
ATOM      1  C   TYR B3001      15.490  34.150  26.442  0.70 44.28 LIG 0.25  C 
ATOM      2 O    TYR B3001      14.460  33.838  25.842  0.70 44.11 LIG-0.27  OA
ATOM      3  N   PRO B3002      15.999  33.405  27.448  0.70 46.07 LIG-0.34  N 
ATOM      4  CA  PRO B3002      15.514  32.124  27.981  0.70 46.91 LIG 0.18  C 
ATOM      5  CB  PRO B3002      16.433  31.880  29.179  0.70 46.92 LIG 0.04  C 
ATOM      6  CG  PRO B3002      16.715  33.250  29.652  0.70 47.16 LIG 0.02  C 
ATOM      7  CD  PRO B3002      17.025  33.957  28.352  0.70 47.04 LIG 0.13  C 
ENDROOT
BRANCH 4 8
ATOM      8  C   PRO B3002      14.055  31.963  28.381  0.70 47.26 LIG 0.24  C 
ATOM      9  N   TYR B3003      13.369  33.104  28.462  0.70 47.47 LIG-0.34  N 
ATOM     10 H    TYR B3003      13.733  33.873  28.330  0.70 47.47 LIG 0.16  HD
ATOM     11 O    PRO B3002      13.566  30.834  28.544  0.70 46.37 LIG-0.27  OA
BRANCH 9 12
ATOM     12  CA  TYR B3003      11.946  33.189  28.776  0.70 47.51 LIG 0.19  C 
BRANCH 12 13
ATOM     13  C   TYR B3003      11.358  34.587  28.672  0.70 47.80 LIG 0.20  C 
ATOM     14 OXT  TYR B3003      10.158  34.735  28.980  0.70 46.55 LIG-0.65  OA
ATOM     15 O    TYR B3003      12.085  35.514  28.255  0.70 50.35 LIG-0.65  OA
ENDBRANCH 12 13
BRANCH 12 16
ATOM     16  CB  TYR B3003      11.684  32.594  30.164  0.70 48.13 LIG 0.07  C 
BRANCH 16 17
ATOM     17  CG  TYR B3003      10.743  31.412  30.179  0.70 49.00 LIG-0.06  A 
ATOM     18  CD2 TYR B3003      10.199  30.906  28.992  0.70 49.34 LIG 0.01  A 
ATOM     19  CE2 TYR B3003       9.325  29.819  29.010  0.70 49.34 LIG 0.04  A 
ATOM     20  CZ  TYR B3003       8.993  29.227  30.224  0.70 49.55 LIG 0.07  A 
ATOM     21  CE1 TYR B3003       9.519  29.711  31.409  0.70 48.63 LIG 0.04  A 
ATOM     22  CD1 TYR B3003      10.389  30.798  31.381  0.70 49.33 LIG 0.01  A 
BRANCH 20 23
ATOM     23 OH   TYR B3003       8.152  28.133  30.254  0.70 50.92 LIG-0.36  OA
ATOM     24 HH   TYR B3003       7.422  28.331  29.890  0.70 50.92 LIG 0.22  HD
ENDBRANCH 20 23
ENDBRANCH 16 17
ENDBRANCH 12 16
ENDBRANCH 9 12
ENDBRANCH 4 8
BRANCH 1 25
ATOM     25  CA  TYR B3001      16.237  35.440  26.100  0.70 43.08 LIG 0.28  C 
BRANCH 25 26
ATOM     26  CB  TYR B3001      15.448  36.292  25.084  0.70 40.59 LIG 0.08  C 
BRANCH 26 27
ATOM     27  CG  TYR B3001      15.562  35.797  23.649  0.70 39.24 LIG-0.06  A 
ATOM     28  CD1 TYR B3001      14.637  34.890  23.127  0.70 40.30 LIG 0.01  A 
ATOM     29  CE1 TYR B3001      14.781  34.366  21.821  0.70 38.36 LIG 0.04  A 
ATOM     30  CZ  TYR B3001      15.858  34.761  21.033  0.70 37.05 LIG 0.07  A 
ATOM     31  CE2 TYR B3001      16.783  35.672  21.532  0.70 37.49 LIG 0.04  A 
ATOM     32  CD2 TYR B3001      16.630  36.184  22.834  0.70 38.19 LIG 0.01  A 
BRANCH 30 33
ATOM     33 OH   TYR B3001      16.028  34.236  19.767  0.70 32.30 LIG-0.36  OA
ATOM     34 HH   TYR B3001      16.771  33.846  19.722  0.70 32.30 LIG 0.22  HD
ENDBRANCH 30 33
ENDBRANCH 26 27
ENDBRANCH 25 26
BRANCH 25 35
ATOM     35  N   TYR B3001      17.514  34.971  25.484  0.70 42.81 LIG-0.07  N 
ATOM     36 H3   TYR B3001      17.348  34.627  24.680  0.70 42.81 LIG 0.28  HD
ATOM     37 H2   TYR B3001      17.884  34.350  26.002  0.70 42.81 LIG 0.28  HD
ATOM     38 H1   TYR B3001      18.074  35.658  25.401  0.70 42.81 LIG 0.28  HD
ENDBRANCH 25 35
ENDBRANCH 1 25
TORSDOF 11
ENDMDL
MODEL 8
USER: ADFR SOLUTION from run 111
USER: SCORE 6.479541 LL:  -1.758 LR:  -4.721 RR:   0.000 FEB:  -1.440
USER: RMSD 1.966439
USER: SEED 110
USER: STATUS no improvement in best 2 clusters for 5 generations
USER: GENES 13
USER: genes 0 Translation |==|  0.52975 0.53004 0.47699
USER: genes 1 Rotation |==|  0.38992 0.43539 0.52240 0.98291
USER: genes 2 Torsion [N]-CA--C-[O] |==|  0.69466
USER: genes 3 Torsion [C]-N--CA-[C] |==|  0.16803
USER: genes 4 Torsion [N]-CA--C-[OXT] |==|  0.29844
USER: genes 5 Torsion [N]-CA--CB-[CG] |==|  0.63860
USER: genes 6 Torsion [CA]-CB--CG-[CD2] |==|  0.30514
USER: genes 7 Torsion [CE2]-CZ--OH-[HH] |==|  0.03186
USER: genes 8 Torsion [N]-C--CA-[N] |==|  0.28883
USER: genes 9 Torsion [C]-CA--CB-[CG] |==|  0.62685
USER: genes 10 Torsion [CA]-CB--CG-[CD1] |==|  0.32266
USER: genes 11 Torsion [CE1]-CZ--OH-[HH] |==|  0.86403
USER: genes 12 Torsion [C]-CA--N-[H2] |==|  0.87789
ROOT
ATOM      1  C   TYR B3001      14.952  34.411  27.280  0.70 44.28 LIG 0.25  C 
ATOM      2 O    TYR B3001      14.088  33.873  26.587  0.70 44.11 LIG-0.27  OA
ATOM      3  N   PRO B3002      14.958  34.329  28.629  0.70 46.07 LIG-0.34  N 
ATOM      4  CA  PRO B3002      14.041  33.593  29.510  0.70 46.91 LIG 0.18  C 
ATOM      5  CB  PRO B3002      14.498  34.011  30.909  0.70 46.92 LIG 0.04  C 
ATOM      6  CG  PRO B3002      14.967  35.395  30.693  0.70 47.16 LIG 0.02  C 
ATOM      7  CD  PRO B3002      15.794  35.238  29.436  0.70 47.04 LIG 0.13  C 
ENDROOT
BRANCH 4 8
ATOM      8  C   PRO B3002      12.536  33.760  29.364  0.70 47.26 LIG 0.24  C 
ATOM      9  N   TYR B3003      12.011  33.165  28.293  0.70 47.47 LIG-0.34  N 
ATOM     10 H    TYR B3003      12.490  32.748  27.713  0.70 47.47 LIG 0.16  HD
ATOM     11 O    PRO B3002      11.879  34.355  30.233  0.70 46.37 LIG-0.27  OA
BRANCH 9 12
ATOM     12  CA  TYR B3003      10.585  33.147  27.977  0.70 47.51 LIG 0.19  C 
BRANCH 12 13
ATOM     13  C   TYR B3003       9.965  34.520  27.775  0.70 47.80 LIG 0.20  C 
ATOM     14 OXT  TYR B3003       9.663  34.854  26.611  0.70 46.55 LIG-0.65  OA
ATOM     15 O    TYR B3003       9.817  35.264  28.769  0.70 50.35 LIG-0.65  OA
ENDBRANCH 12 13
BRANCH 12 16
ATOM     16  CB  TYR B3003       9.825  32.365  29.055  0.70 48.13 LIG 0.07  C 
BRANCH 16 17
ATOM     17  CG  TYR B3003       8.884  31.308  28.524  0.70 49.00 LIG-0.06  A 
ATOM     18  CD2 TYR B3003       9.162  29.945  28.687  0.70 49.34 LIG 0.01  A 
ATOM     19  CE2 TYR B3003       8.295  28.972  28.189  0.70 49.34 LIG 0.04  A 
ATOM     20  CZ  TYR B3003       7.135  29.362  27.526  0.70 49.55 LIG 0.07  A 
ATOM     21  CE1 TYR B3003       6.842  30.704  27.353  0.70 48.63 LIG 0.04  A 
ATOM     22  CD1 TYR B3003       7.714  31.667  27.851  0.70 49.33 LIG 0.01  A 
BRANCH 20 23
ATOM     23 OH   TYR B3003       6.254  28.411  27.053  0.70 50.92 LIG-0.36  OA
ATOM     24 HH   TYR B3003       6.458  27.659  27.368  0.70 50.92 LIG 0.22  HD
ENDBRANCH 20 23
ENDBRANCH 16 17
ENDBRANCH 12 16
ENDBRANCH 9 12
ENDBRANCH 4 8
BRANCH 1 25
ATOM     25  CA  TYR B3001      16.061  35.248  26.640  0.70 43.08 LIG 0.28  C 
BRANCH 25 26
ATOM     26  CB  TYR B3001      15.513  36.120  25.491  0.70 40.59 LIG 0.08  C 
BRANCH 26 27
ATOM     27  CG  TYR B3001      16.371  36.087  24.234  0.70 39.24 LIG-0.06  A 
ATOM     28  CD1 TYR B3001      15.872  35.566  23.037  0.70 40.30 LIG 0.01  A 
ATOM     29  CE1 TYR B3001      16.688  35.461  21.887  0.70 38.36 LIG 0.04  A 
ATOM     30  CZ  TYR B3001      18.012  35.887  21.938  0.70 37.05 LIG 0.07  A 
ATOM     31  CE2 TYR B3001      18.523  36.419  23.117  0.70 37.49 LIG 0.04  A 
ATOM     32  CD2 TYR B3001      17.701  36.516  24.255  0.70 38.19 LIG 0.01  A 
BRANCH 30 33
ATOM     33 OH   TYR B3001      18.829  35.763  20.832  0.70 32.30 LIG-0.36  OA
ATOM     34 HH   TYR B3001      18.770  34.984  20.525  0.70 32.30 LIG 0.22  HD
ENDBRANCH 30 33
ENDBRANCH 26 27
ENDBRANCH 25 26
BRANCH 25 35
ATOM     35  N   TYR B3001      17.016  34.237  26.097  0.70 42.81 LIG-0.07  N 
ATOM     36 H3   TYR B3001      16.683  33.884  25.351  0.70 42.81 LIG 0.28  HD
ATOM     37 H2   TYR B3001      17.142  33.594  26.699  0.70 42.81 LIG 0.28  HD
ATOM     38 H1   TYR B3001      17.794  34.630  25.916  0.70 42.81 LIG 0.28  HD
ENDBRANCH 25 35
ENDBRANCH 1 25
TORSDOF 11
ENDMDL
MODEL 9
USER: ADFR SOLUTION from run 73
USER: SCORE 6.473690 LL:  -1.926 LR:  -4.547 RR:   0.000 FEB:  -1.266
USER: RMSD 2.658864
USER: SEED 72
USER: STATUS no improvement in best 4 clusters for 5 generations
USER: GENES 13
USER: genes 0 Translation |==|  0.53945 0.52064 0.46808
USER: genes 1 Rotation |==|  0.47980 0.54565 0.56156 0.99368
USER: genes 2 Torsion [N]-CA--C-[O] |==|  0.75422
USER: genes 3 Torsion [C]-N--CA-[C] |==|  0.61135
USER: genes 4 Torsion [N]-CA--C-[OXT] |==|  0.49886
USER: genes 5 Torsion [N]-CA--CB-[CG] |==|  0.56714
USER: genes 6 Torsion [CA]-CB--CG-[CD2] |==|  0.16627
USER: genes 7 Torsion [CE2]-CZ--OH-[HH] |==|  0.66941
USER: genes 8 Torsion [N]-C--CA-[N] |==|  0.21096
USER: genes 9 Torsion [C]-CA--CB-[CG] |==|  0.72728
USER: genes 10 Torsion [CA]-CB--CG-[CD1] |==|  0.27915
USER: genes 11 Torsion [CE1]-CZ--OH-[HH] |==|  0.67879
USER: genes 12 Torsion [C]-CA--N-[H2] |==|  0.55570
ROOT
ATOM      1  C   TYR B3001      15.243  34.129  27.012  0.70 44.28 LIG 0.25  C 
ATOM      2 O    TYR B3001      14.163  33.666  26.644  0.70 44.11 LIG-0.27  OA
ATOM      3  N   PRO B3002      15.893  33.677  28.108  0.70 46.07 LIG-0.34  N 
ATOM      4  CA  PRO B3002      15.520  32.578  29.011  0.70 46.91 LIG 0.18  C 
ATOM      5  CB  PRO B3002      16.580  32.661  30.109  0.70 46.92 LIG 0.04  C 
ATOM      6  CG  PRO B3002      16.865  34.109  30.172  0.70 47.16 LIG 0.02  C 
ATOM      7  CD  PRO B3002      16.996  34.452  28.706  0.70 47.04 LIG 0.13  C 
ENDROOT
BRANCH 4 8
ATOM      8  C   PRO B3002      14.125  32.520  29.613  0.70 47.26 LIG 0.24  C 
ATOM      9  N   TYR B3003      13.257  31.764  28.939  0.70 47.47 LIG-0.34  N 
ATOM     10 H    TYR B3003      13.462  31.368  28.204  0.70 47.47 LIG 0.16  HD
ATOM     11 O    PRO B3002      13.876  33.093  30.686  0.70 46.37 LIG-0.27  OA
BRANCH 9 12
ATOM     12  CA  TYR B3003      11.880  31.519  29.358  0.70 47.51 LIG 0.19  C 
BRANCH 12 13
ATOM     13  C   TYR B3003      11.398  30.093  29.144  0.70 47.80 LIG 0.20  C 
ATOM     14 OXT  TYR B3003      10.231  29.818  29.489  0.70 46.55 LIG-0.65  OA
ATOM     15 O    TYR B3003      12.195  29.256  28.667  0.70 50.35 LIG-0.65  OA
ENDBRANCH 12 13
BRANCH 12 16
ATOM     16  CB  TYR B3003      10.942  32.516  28.666  0.70 48.13 LIG 0.07  C 
BRANCH 16 17
ATOM     17  CG  TYR B3003       9.642  32.770  29.394  0.70 49.00 LIG-0.06  A 
ATOM     18  CD2 TYR B3003       9.630  33.286  30.695  0.70 49.34 LIG 0.01  A 
ATOM     19  CE2 TYR B3003       8.428  33.512  31.366  0.70 49.34 LIG 0.04  A 
ATOM     20  CZ  TYR B3003       7.225  33.226  30.730  0.70 49.55 LIG 0.07  A 
ATOM     21  CE1 TYR B3003       7.213  32.715  29.444  0.70 48.63 LIG 0.04  A 
ATOM     22  CD1 TYR B3003       8.418  32.490  28.784  0.70 49.33 LIG 0.01  A 
BRANCH 20 23
ATOM     23 OH   TYR B3003       6.027  33.472  31.371  0.70 50.92 LIG-0.36  OA
ATOM     24 HH   TYR B3003       5.604  32.752  31.462  0.70 50.92 LIG 0.22  HD
ENDBRANCH 20 23
ENDBRANCH 16 17
ENDBRANCH 12 16
ENDBRANCH 9 12
ENDBRANCH 4 8
BRANCH 1 25
ATOM     25  CA  TYR B3001      15.898  35.288  26.258  0.70 43.08 LIG 0.28  C 
BRANCH 25 26
ATOM     26  CB  TYR B3001      14.912  35.937  25.265  0.70 40.59 LIG 0.08  C 
BRANCH 26 27
ATOM     27  CG  TYR B3001      15.077  35.450  23.832  0.70 39.24 LIG-0.06  A 
ATOM     28  CD1 TYR B3001      14.216  34.488  23.297  0.70 40.30 LIG 0.01  A 
ATOM     29  CE1 TYR B3001      14.411  33.974  21.994  0.70 38.36 LIG 0.04  A 
ATOM     30  CZ  TYR B3001      15.473  34.432  21.221  0.70 37.05 LIG 0.07  A 
ATOM     31  CE2 TYR B3001      16.334  35.397  21.732  0.70 37.49 LIG 0.04  A 
ATOM     32  CD2 TYR B3001      16.131  35.900  23.031  0.70 38.19 LIG 0.01  A 
BRANCH 30 33
ATOM     33 OH   TYR B3001      15.693  33.918  19.959  0.70 32.30 LIG-0.36  OA
ATOM     34 HH   TYR B3001      16.430  33.515  19.944  0.70 32.30 LIG 0.22  HD
ENDBRANCH 30 33
ENDBRANCH 26 27
ENDBRANCH 25 26
BRANCH 25 35
ATOM     35  N   TYR B3001      17.023  34.650  25.513  0.70 42.81 LIG-0.07  N 
ATOM     36 H3   TYR B3001      17.413  34.039  26.029  0.70 42.81 LIG 0.28  HD
ATOM     37 H2   TYR B3001      17.619  35.271  25.287  0.70 42.81 LIG 0.28  HD
ATOM     38 H1   TYR B3001      16.709  34.260  24.777  0.70 42.81 LIG 0.28  HD
ENDBRANCH 25 35
ENDBRANCH 1 25
TORSDOF 11
ENDMDL
MODEL 10
USER: ADFR SOLUTION from run 82
USER: SCORE 6.282996 LL:  -1.828 LR:  -4.455 RR:   0.000 FEB:  -1.174
USER: RMSD 2.832844
USER: SEED 81
USER: STATUS no improvement in best 5 clusters for 5 generations
USER: GENES 13
USER: genes 0 Translation |==|  0.60170 0.53074 0.45677
USER: genes 1 Rotation |==|  0.53246 0.52030 0.48927 0.99842
USER: genes 2 Torsion [N]-CA--C-[O] |==|  0.78648
USER: genes 3 Torsion [C]-N--CA-[C] |==|  0.16131
USER: genes 4 Torsion [N]-CA--C-[OXT] |==|  0.54739
USER: genes 5 Torsion [N]-CA--CB-[CG] |==|  0.72798
USER: genes 6 Torsion [CA]-CB--CG-[CD2] |==|  0.16683
USER: genes 7 Torsion [CE2]-CZ--OH-[HH] |==|  0.83301
USER: genes 8 Torsion [N]-C--CA-[N] |==|  0.20957
USER: genes 9 Torsion [C]-CA--CB-[CG] |==|  0.70427
USER: genes 10 Torsion [CA]-CB--CG-[CD1] |==|  0.28577
USER: genes 11 Torsion [CE1]-CZ--OH-[HH] |==|  0.79627
USER: genes 12 Torsion [C]-CA--N-[H2] |==|  0.88092
ROOT
ATOM      1  C   TYR B3001      17.111  34.432  26.673  0.70 44.28 LIG 0.25  C 
ATOM      2 O    TYR B3001      15.993  34.395  26.158  0.70 44.11 LIG-0.27  OA
ATOM      3  N   PRO B3002      17.471  33.615  27.688  0.70 46.07 LIG-0.34  N 
ATOM      4  CA  PRO B3002      16.694  32.541  28.324  0.70 46.91 LIG 0.18  C 
ATOM      5  CB  PRO B3002      17.599  32.098  29.475  0.70 46.92 LIG 0.04  C 
ATOM      6  CG  PRO B3002      18.281  33.354  29.848  0.70 47.16 LIG 0.02  C 
ATOM      7  CD  PRO B3002      18.674  33.896  28.493  0.70 47.04 LIG 0.13  C 
ENDROOT
BRANCH 4 8
ATOM      8  C   PRO B3002      15.282  32.807  28.822  0.70 47.26 LIG 0.24  C 
ATOM      9  N   TYR B3003      14.317  32.269  28.075  0.70 47.47 LIG-0.34  N 
ATOM     10 H    TYR B3003      14.480  31.835  27.350  0.70 47.47 LIG 0.16  HD
ATOM     11 O    PRO B3002      15.092  33.423  29.882  0.70 46.37 LIG-0.27  OA
BRANCH 9 12
ATOM     12  CA  TYR B3003      12.893  32.349  28.388  0.70 47.51 LIG 0.19  C 
BRANCH 12 13
ATOM     13  C   TYR B3003      12.351  33.764  28.512  0.70 47.80 LIG 0.20  C 
ATOM     14 OXT  TYR B3003      11.253  33.916  29.086  0.70 46.55 LIG-0.65  OA
ATOM     15 O    TYR B3003      13.005  34.703  28.009  0.70 50.35 LIG-0.65  OA
ENDBRANCH 12 13
BRANCH 12 16
ATOM     16  CB  TYR B3003      12.595  31.543  29.658  0.70 48.13 LIG 0.07  C 
BRANCH 16 17
ATOM     17  CG  TYR B3003      12.061  30.151  29.413  0.70 49.00 LIG-0.06  A 
ATOM     18  CD2 TYR B3003      12.807  29.206  28.697  0.70 49.34 LIG 0.01  A 
ATOM     19  CE2 TYR B3003      12.308  27.924  28.466  0.70 49.34 LIG 0.04  A 
ATOM     20  CZ  TYR B3003      11.054  27.578  28.959  0.70 49.55 LIG 0.07  A 
ATOM     21  CE1 TYR B3003      10.300  28.496  29.668  0.70 48.63 LIG 0.04  A 
ATOM     22  CD1 TYR B3003      10.805  29.774  29.892  0.70 49.33 LIG 0.01  A 
BRANCH 20 23
ATOM     23 OH   TYR B3003      10.560  26.304  28.763  0.70 50.92 LIG-0.36  OA
ATOM     24 HH   TYR B3003      10.501  26.150  27.939  0.70 50.92 LIG 0.22  HD
ENDBRANCH 20 23
ENDBRANCH 16 17
ENDBRANCH 12 16
ENDBRANCH 9 12
ENDBRANCH 4 8
BRANCH 1 25
ATOM     25  CA  TYR B3001      18.155  35.450  26.211  0.70 43.08 LIG 0.28  C 
BRANCH 25 26
ATOM     26  CB  TYR B3001      17.524  36.529  25.307  0.70 40.59 LIG 0.08  C 
BRANCH 26 27
ATOM     27  CG  TYR B3001      17.881  36.380  23.834  0.70 39.24 LIG-0.06  A 
ATOM     28  CD1 TYR B3001      16.967  35.845  22.923  0.70 40.30 LIG 0.01  A 
ATOM     29  CE1 TYR B3001      17.319  35.633  21.570  0.70 38.36 LIG 0.04  A 
ATOM     30  CZ  TYR B3001      18.597  35.964  21.128  0.70 37.05 LIG 0.07  A 
ATOM     31  CE2 TYR B3001      19.517  36.507  22.018  0.70 37.49 LIG 0.04  A 
ATOM     32  CD2 TYR B3001      19.155  36.713  23.363  0.70 38.19 LIG 0.01  A 
BRANCH 30 33
ATOM     33 OH   TYR B3001      18.964  35.734  19.818  0.70 32.30 LIG-0.36  OA
ATOM     34 HH   TYR B3001      19.078  34.911  19.698  0.70 32.30 LIG 0.22  HD
ENDBRANCH 30 33
ENDBRANCH 26 27
ENDBRANCH 25 26
BRANCH 25 35
ATOM     35  N   TYR B3001      19.133  34.640  25.426  0.70 42.81 LIG-0.07  N 
ATOM     36 H3   TYR B3001      18.794  34.461  24.623  0.70 42.81 LIG 0.28  HD
ATOM     37 H2   TYR B3001      19.299  33.878  25.854  0.70 42.81 LIG 0.28  HD
ATOM     38 H1   TYR B3001      19.890  35.098  25.332  0.70 42.81 LIG 0.28  HD
ENDBRANCH 25 35
ENDBRANCH 1 25
TORSDOF 11
ENDMDL
MODEL 11
USER: ADFR SOLUTION from run 20
USER: SCORE 6.496136 LL:  -2.134 LR:  -4.362 RR:   0.000 FEB:  -1.081
USER: RMSD 2.579249
USER: SEED 19
USER: STATUS 1 or 2 clusters left
USER: GENES 13
USER: genes 0 Translation |==|  0.54610 0.49253 0.46645
USER: genes 1 Rotation |==|  0.65193 0.50103 0.52862 0.97550
USER: genes 2 Torsion [N]-CA--C-[O] |==|  0.43115
USER: genes 3 Torsion [C]-N--CA-[C] |==|  0.50139
USER: genes 4 Torsion [N]-CA--C-[OXT] |==|  0.50984
USER: genes 5 Torsion [N]-CA--CB-[CG] |==|  0.65490
USER: genes 6 Torsion [CA]-CB--CG-[CD2] |==|  0.90079
USER: genes 7 Torsion [CE2]-CZ--OH-[HH] |==|  0.80431
USER: genes 8 Torsion [N]-C--CA-[N] |==|  0.17417
USER: genes 9 Torsion [C]-CA--CB-[CG] |==|  0.57089
USER: genes 10 Torsion [CA]-CB--CG-[CD1] |==|  0.25344
USER: genes 11 Torsion [CE1]-CZ--OH-[HH] |==|  0.60573
USER: genes 12 Torsion [C]-CA--N-[H2] |==|  0.88990
ROOT
ATOM      1  C   TYR B3001      15.443  33.286  26.963  0.70 44.28 LIG 0.25  C 
ATOM      2 O    TYR B3001      14.375  33.384  26.357  0.70 44.11 LIG-0.27  OA
ATOM      3  N   PRO B3002      15.860  32.126  27.517  0.70 46.07 LIG-0.34  N 
ATOM      4  CA  PRO B3002      15.217  30.805  27.481  0.70 46.91 LIG 0.18  C 
ATOM      5  CB  PRO B3002      16.108  29.963  28.395  0.70 46.92 LIG 0.04  C 
ATOM      6  CG  PRO B3002      16.572  30.951  29.390  0.70 47.16 LIG 0.02  C 
ATOM      7  CD  PRO B3002      16.959  32.111  28.501  0.70 47.04 LIG 0.13  C 
ENDROOT
BRANCH 4 8
ATOM      8  C   PRO B3002      13.754  30.653  27.869  0.70 47.26 LIG 0.24  C 
ATOM      9  N   TYR B3003      13.274  31.637  28.631  0.70 47.47 LIG-0.34  N 
ATOM     10 H    TYR B3003      13.763  32.288  28.909  0.70 47.47 LIG 0.16  HD
ATOM     11 O    PRO B3002      13.079  29.707  27.432  0.70 46.37 LIG-0.27  OA
BRANCH 9 12
ATOM     12  CA  TYR B3003      11.887  31.730  29.079  0.70 47.51 LIG 0.19  C 
BRANCH 12 13
ATOM     13  C   TYR B3003      11.578  32.951  29.930  0.70 47.80 LIG 0.20  C 
ATOM     14 OXT  TYR B3003      10.427  33.054  30.401  0.70 46.55 LIG-0.65  OA
ATOM     15 O    TYR B3003      12.471  33.811  30.092  0.70 50.35 LIG-0.65  OA
ENDBRANCH 12 13
BRANCH 12 16
ATOM     16  CB  TYR B3003      11.493  30.444  29.816  0.70 48.13 LIG 0.07  C 
BRANCH 16 17
ATOM     17  CG  TYR B3003      10.275  29.744  29.258  0.70 49.00 LIG-0.06  A 
ATOM     18  CD2 TYR B3003       9.197  30.471  28.739  0.70 49.34 LIG 0.01  A 
ATOM     19  CE2 TYR B3003       8.072  29.822  28.232  0.70 49.34 LIG 0.04  A 
ATOM     20  CZ  TYR B3003       8.023  28.431  28.237  0.70 49.55 LIG 0.07  A 
ATOM     21  CE1 TYR B3003       9.077  27.693  28.745  0.70 48.63 LIG 0.04  A 
ATOM     22  CD1 TYR B3003      10.195  28.350  29.251  0.70 49.33 LIG 0.01  A 
BRANCH 20 23
ATOM     23 OH   TYR B3003       6.928  27.775  27.712  0.70 50.92 LIG-0.36  OA
ATOM     24 HH   TYR B3003       6.265  27.888  28.215  0.70 50.92 LIG 0.22  HD
ENDBRANCH 20 23
ENDBRANCH 16 17
ENDBRANCH 12 16
ENDBRANCH 9 12
ENDBRANCH 4 8
BRANCH 1 25
ATOM     25  CA  TYR B3001      16.349  34.503  27.158  0.70 43.08 LIG 0.28  C 
BRANCH 25 26
ATOM     26  CB  TYR B3001      15.746  35.762  26.501  0.70 40.59 LIG 0.08  C 
BRANCH 26 27
ATOM     27  CG  TYR B3001      16.783  36.805  26.109  0.70 39.24 LIG-0.06  A 
ATOM     28  CD1 TYR B3001      17.361  36.801  24.837  0.70 40.30 LIG 0.01  A 
ATOM     29  CE1 TYR B3001      18.381  37.718  24.492  0.70 38.36 LIG 0.04  A 
ATOM     30  CZ  TYR B3001      18.820  38.648  25.429  0.70 37.05 LIG 0.07  A 
ATOM     31  CE2 TYR B3001      18.250  38.674  26.697  0.70 37.49 LIG 0.04  A 
ATOM     32  CD2 TYR B3001      17.236  37.755  27.029  0.70 38.19 LIG 0.01  A 
BRANCH 30 33
ATOM     33 OH   TYR B3001      19.835  39.529  25.117  0.70 32.30 LIG-0.36  OA
ATOM     34 HH   TYR B3001      20.330  39.637  25.787  0.70 32.30 LIG 0.22  HD
ENDBRANCH 30 33
ENDBRANCH 26 27
ENDBRANCH 25 26
BRANCH 25 35
ATOM     35  N   TYR B3001      17.618  34.128  26.466  0.70 42.81 LIG-0.07  N 
ATOM     36 H3   TYR B3001      17.528  34.257  25.590  0.70 42.81 LIG 0.28  HD
ATOM     37 H2   TYR B3001      17.801  33.272  26.623  0.70 42.81 LIG 0.28  HD
ATOM     38 H1   TYR B3001      18.283  34.634  26.773  0.70 42.81 LIG 0.28  HD
ENDBRANCH 25 35
ENDBRANCH 1 25
TORSDOF 11
ENDMDL
MODEL 12
USER: ADFR SOLUTION from run 38
USER: SCORE 6.041047 LL:  -1.682 LR:  -4.359 RR:   0.000 FEB:  -1.078
USER: RMSD 1.937919
USER: SEED 37
USER: STATUS no improvement in best 2 clusters for 5 generations
USER: GENES 13
USER: genes 0 Translation |==|  0.53451 0.50344 0.47764
USER: genes 1 Rotation |==|  0.62657 0.52010 0.46660 0.98214
USER: genes 2 Torsion [N]-CA--C-[O] |==|  0.90468
USER: genes 3 Torsion [C]-N--CA-[C] |==|  0.19069
USER: genes 4 Torsion [N]-CA--C-[OXT] |==|  0.31466
USER: genes 5 Torsion [N]-CA--CB-[CG] |==|  0.51631
USER: genes 6 Torsion [CA]-CB--CG-[CD2] |==|  0.12032
USER: genes 7 Torsion [CE2]-CZ--OH-[HH] |==|  0.91365
USER: genes 8 Torsion [N]-C--CA-[N] |==|  0.16898
USER: genes 9 Torsion [C]-CA--CB-[CG] |==|  0.75964
USER: genes 10 Torsion [CA]-CB--CG-[CD1] |==|  0.27281
USER: genes 11 Torsion [CE1]-CZ--OH-[HH] |==|  0.66184
USER: genes 12 Torsion [C]-CA--N-[H2] |==|  0.85677
ROOT
ATOM      1  C   TYR B3001      15.095  33.613  27.299  0.70 44.28 LIG 0.25  C 
ATOM      2 O    TYR B3001      13.990  33.887  26.829  0.70 44.11 LIG-0.27  OA
ATOM      3  N   PRO B3002      15.346  32.446  27.934  0.70 46.07 LIG-0.34  N 
ATOM      4  CA  PRO B3002      14.449  31.302  28.145  0.70 46.91 LIG 0.18  C 
ATOM      5  CB  PRO B3002      15.278  30.374  29.033  0.70 46.92 LIG 0.04  C 
ATOM      6  CG  PRO B3002      16.081  31.324  29.830  0.70 47.16 LIG 0.02  C 
ATOM      7  CD  PRO B3002      16.556  32.283  28.762  0.70 47.04 LIG 0.13  C 
ENDROOT
BRANCH 4 8
ATOM      8  C   PRO B3002      13.062  31.512  28.734  0.70 47.26 LIG 0.24  C 
ATOM      9  N   TYR B3003      12.141  30.644  28.315  0.70 47.47 LIG-0.34  N 
ATOM     10 H    TYR B3003      12.310  30.034  27.732  0.70 47.47 LIG 0.16  HD
ATOM     11 O    PRO B3002      12.865  32.393  29.585  0.70 46.37 LIG-0.27  OA
BRANCH 9 12
ATOM     12  CA  TYR B3003      10.758  30.620  28.784  0.70 47.51 LIG 0.19  C 
BRANCH 12 13
ATOM     13  C   TYR B3003       9.921  31.812  28.345  0.70 47.80 LIG 0.20  C 
ATOM     14 OXT  TYR B3003       8.982  31.599  27.552  0.70 46.55 LIG-0.65  OA
ATOM     15 O    TYR B3003      10.228  32.948  28.767  0.70 50.35 LIG-0.65  OA
ENDBRANCH 12 13
BRANCH 12 16
ATOM     16  CB  TYR B3003      10.730  30.474  30.310  0.70 48.13 LIG 0.07  C 
BRANCH 16 17
ATOM     17  CG  TYR B3003       9.351  30.297  30.903  0.70 49.00 LIG-0.06  A 
ATOM     18  CD2 TYR B3003       8.414  29.442  30.311  0.70 49.34 LIG 0.01  A 
ATOM     19  CE2 TYR B3003       7.140  29.286  30.857  0.70 49.34 LIG 0.04  A 
ATOM     20  CZ  TYR B3003       6.798  29.988  32.009  0.70 49.55 LIG 0.07  A 
ATOM     21  CE1 TYR B3003       7.709  30.839  32.609  0.70 48.63 LIG 0.04  A 
ATOM     22  CD1 TYR B3003       8.977  30.989  32.056  0.70 49.33 LIG 0.01  A 
BRANCH 20 23
ATOM     23 OH   TYR B3003       5.551  29.822  32.576  0.70 50.92 LIG-0.36  OA
ATOM     24 HH   TYR B3003       4.989  29.652  31.975  0.70 50.92 LIG 0.22  HD
ENDBRANCH 20 23
ENDBRANCH 16 17
ENDBRANCH 12 16
ENDBRANCH 9 12
ENDBRANCH 4 8
BRANCH 1 25
ATOM     25  CA  TYR B3001      16.249  34.614  27.224  0.70 43.08 LIG 0.28  C 
BRANCH 25 26
ATOM     26  CB  TYR B3001      15.837  35.889  26.459  0.70 40.59 LIG 0.08  C 
BRANCH 26 27
ATOM     27  CG  TYR B3001      16.019  35.785  24.951  0.70 39.24 LIG-0.06  A 
ATOM     28  CD1 TYR B3001      14.942  35.475  24.117  0.70 40.30 LIG 0.01  A 
ATOM     29  CE1 TYR B3001      15.119  35.301  22.725  0.70 38.36 LIG 0.04  A 
ATOM     30  CZ  TYR B3001      16.386  35.442  22.166  0.70 37.05 LIG 0.07  A 
ATOM     31  CE2 TYR B3001      17.469  35.760  22.979  0.70 37.49 LIG 0.04  A 
ATOM     32  CD2 TYR B3001      17.280  35.930  24.364  0.70 38.19 LIG 0.01  A 
BRANCH 30 33
ATOM     33 OH   TYR B3001      16.580  35.246  20.814  0.70 32.30 LIG-0.36  OA
ATOM     34 HH   TYR B3001      17.147  34.637  20.697  0.70 32.30 LIG 0.22  HD
ENDBRANCH 30 33
ENDBRANCH 26 27
ENDBRANCH 25 26
BRANCH 25 35
ATOM     35  N   TYR B3001      17.313  33.890  26.466  0.70 42.81 LIG-0.07  N 
ATOM     36 H3   TYR B3001      17.054  33.780  25.622  0.70 42.81 LIG 0.28  HD
ATOM     37 H2   TYR B3001      17.454  33.094  26.838  0.70 42.81 LIG 0.28  HD
ATOM     38 H1   TYR B3001      18.066  34.363  26.485  0.70 42.81 LIG 0.28  HD
ENDBRANCH 25 35
ENDBRANCH 1 25
TORSDOF 11
ENDMDL
MODEL 13
USER: ADFR SOLUTION from run 84
USER: SCORE 6.718158 LL:  -2.372 LR:  -4.346 RR:   0.000 FEB:  -1.064
USER: RMSD 2.696468
USER: SEED 83
USER: STATUS searching
USER: GENES 13
USER: genes 0 Translation |==|  0.58676 0.53787 0.44404
USER: genes 1 Rotation |==|  0.55346 0.45474 0.46766 0.99401
USER: genes 2 Torsion [N]-CA--C-[O] |==|  0.43497
USER: genes 3 Torsion [C]-N--CA-[C] |==|  0.55114
USER: genes 4 Torsion [N]-CA--C-[OXT] |==|  0.49007
USER: genes 5 Torsion [N]-CA--CB-[CG] |==|  0.78635
USER: genes 6 Torsion [CA]-CB--CG-[CD2] |==|  0.79969
USER: genes 7 Torsion [CE2]-CZ--OH-[HH] |==|  0.79499
USER: genes 8 Torsion [N]-C--CA-[N] |==|  0.21082
USER: genes 9 Torsion [C]-CA--CB-[CG] |==|  0.74403
USER: genes 10 Torsion [CA]-CB--CG-[CD1] |==|  0.25959
USER: genes 11 Torsion [CE1]-CZ--OH-[HH] |==|  0.84465
USER: genes 12 Torsion [C]-CA--N-[H2] |==|  0.87979
ROOT
ATOM      1  C   TYR B3001      16.663  34.646  26.291  0.70 44.28 LIG 0.25  C 
ATOM      2 O    TYR B3001      15.717  34.771  25.511  0.70 44.11 LIG-0.27  OA
ATOM      3  N   PRO B3002      16.668  33.732  27.287  0.70 46.07 LIG-0.34  N 
ATOM      4  CA  PRO B3002      15.654  32.718  27.611  0.70 46.91 LIG 0.18  C 
ATOM      5  CB  PRO B3002      16.184  32.104  28.907  0.70 46.92 LIG 0.04  C 
ATOM      6  CG  PRO B3002      16.864  33.247  29.550  0.70 47.16 LIG 0.02  C 
ATOM      7  CD  PRO B3002      17.644  33.822  28.389  0.70 47.04 LIG 0.13  C 
ENDROOT
BRANCH 4 8
ATOM      8  C   PRO B3002      14.194  33.114  27.761  0.70 47.26 LIG 0.24  C 
ATOM      9  N   TYR B3003      13.989  34.411  27.996  0.70 47.47 LIG-0.34  N 
ATOM     10 H    TYR B3003      14.634  34.973  28.088  0.70 47.47 LIG 0.16  HD
ATOM     11 O    PRO B3002      13.292  32.276  27.603  0.70 46.37 LIG-0.27  OA
BRANCH 9 12
ATOM     12  CA  TYR B3003      12.670  35.027  28.123  0.70 47.51 LIG 0.19  C 
BRANCH 12 13
ATOM     13  C   TYR B3003      12.659  36.538  27.949  0.70 47.80 LIG 0.20  C 
ATOM     14 OXT  TYR B3003      11.554  37.116  27.978  0.70 46.55 LIG-0.65  OA
ATOM     15 O    TYR B3003      13.744  37.127  27.753  0.70 50.35 LIG-0.65  OA
ENDBRANCH 12 13
BRANCH 12 16
ATOM     16  CB  TYR B3003      12.040  34.632  29.463  0.70 48.13 LIG 0.07  C 
BRANCH 16 17
ATOM     17  CG  TYR B3003      11.477  33.230  29.508  0.70 49.00 LIG-0.06  A 
ATOM     18  CD2 TYR B3003      10.302  32.901  28.821  0.70 49.34 LIG 0.01  A 
ATOM     19  CE2 TYR B3003       9.781  31.608  28.871  0.70 49.34 LIG 0.04  A 
ATOM     20  CZ  TYR B3003      10.442  30.631  29.609  0.70 49.55 LIG 0.07  A 
ATOM     21  CE1 TYR B3003      11.604  30.935  30.296  0.70 48.63 LIG 0.04  A 
ATOM     22  CD1 TYR B3003      12.115  32.229  30.242  0.70 49.33 LIG 0.01  A 
BRANCH 20 23
ATOM     23 OH   TYR B3003       9.953  29.341  29.644  0.70 50.92 LIG-0.36  OA
ATOM     24 HH   TYR B3003       9.267  29.313  30.128  0.70 50.92 LIG 0.22  HD
ENDBRANCH 20 23
ENDBRANCH 16 17
ENDBRANCH 12 16
ENDBRANCH 9 12
ENDBRANCH 4 8
BRANCH 1 25
ATOM     25  CA  TYR B3001      17.883  35.563  26.197  0.70 43.08 LIG 0.28  C 
BRANCH 25 26
ATOM     26  CB  TYR B3001      17.610  36.767  25.272  0.70 40.59 LIG 0.08  C 
BRANCH 26 27
ATOM     27  CG  TYR B3001      18.015  36.531  23.823  0.70 39.24 LIG-0.06  A 
ATOM     28  CD1 TYR B3001      17.092  36.057  22.887  0.70 40.30 LIG 0.01  A 
ATOM     29  CE1 TYR B3001      17.479  35.762  21.559  0.70 38.36 LIG 0.04  A 
ATOM     30  CZ  TYR B3001      18.802  35.948  21.168  0.70 37.05 LIG 0.07  A 
ATOM     31  CE2 TYR B3001      19.733  36.429  22.083  0.70 37.49 LIG 0.04  A 
ATOM     32  CD2 TYR B3001      19.335  36.717  23.402  0.70 38.19 LIG 0.01  A 
BRANCH 30 33
ATOM     33 OH   TYR B3001      19.202  35.637  19.884  0.70 32.30 LIG-0.36  OA
ATOM     34 HH   TYR B3001      19.012  34.835  19.718  0.70 32.30 LIG 0.22  HD
ENDBRANCH 30 33
ENDBRANCH 26 27
ENDBRANCH 25 26
BRANCH 25 35
ATOM     35  N   TYR B3001      18.946  34.698  25.602  0.70 42.81 LIG-0.07  N 
ATOM     36 H3   TYR B3001      18.803  34.609  24.729  0.70 42.81 LIG 0.28  HD
ATOM     37 H2   TYR B3001      18.927  33.896  25.988  0.70 42.81 LIG 0.28  HD
ATOM     38 H1   TYR B3001      19.742  35.072  25.735  0.70 42.81 LIG 0.28  HD
ENDBRANCH 25 35
ENDBRANCH 1 25
TORSDOF 11
ENDMDL
