MODEL 1
USER: ADFR SOLUTION from run 139
USER: SCORE 16.475256 LL:  -3.728 LR: -15.292 RR:   0.000 FEB:  -9.625
USER: RMSD 1.650365
USER: SEED 138
USER: STATUS no improvement in best 1 clusters for 5 generations
USER: GENES 21
USER: genes 0 Translation |==|  0.50446 0.55663 0.52494
USER: genes 1 Rotation |==|  0.53335 0.49642 0.58249 0.99201
USER: genes 2 Torsion [N]-C--CA-[N] |==|  0.45685
USER: genes 3 Torsion [C]-CA--N-[C] |==|  0.50043
USER: genes 4 Torsion [N]-C--CA-[N] |==|  0.55845
USER: genes 5 Torsion [C]-CA--N-[C] |==|  0.20492
USER: genes 6 Torsion [N]-C--CA-[N] |==|  0.17153
USER: genes 7 Torsion [C]-CA--N-[H2] |==|  0.75376
USER: genes 8 Torsion [C]-CA--CB-[CG] |==|  0.19047
USER: genes 9 Torsion [CA]-CB--CG-[CD2] |==|  0.36278
USER: genes 10 Torsion [C]-CA--CB-[CG2] |==|  0.85016
USER: genes 11 Torsion [CA]-CB--CG1-[CD1] |==|  0.28019
USER: genes 12 Torsion [C]-N--CA-[CB] |==|  0.41185
USER: genes 13 Torsion [N]-CA--C-[N] |==|  0.88096
USER: genes 14 Torsion [C]-N--CA-[CB] |==|  0.39871
USER: genes 15 Torsion [N]-CA--CB-[OG] |==|  0.69328
USER: genes 16 Torsion [CA]-CB--OG-[HG] |==|  0.84049
USER: genes 17 Torsion [N]-CA--C-[OXT] |==|  0.69726
USER: genes 18 Torsion [N]-CA--CB-[CG] |==|  0.27034
USER: genes 19 Torsion [CA]-CB--CG-[CD2] |==|  0.66317
USER: genes 20 Torsion [CE2]-CZ--OH-[HH] |==|  0.45511
ROOT
ATOM      1  C   ILE P   3      12.634  22.649  41.928  1.00 41.75 LIG 0.24  C 
ATOM      2 O    ILE P   3      12.265  23.645  41.310  1.00 43.02 LIG-0.27  OA
ATOM      3  N   TYR P   4      13.025  22.703  43.191  1.00 40.49 LIG-0.35  N 
ATOM      4 H    TYR P   4      13.218  22.018  43.673  1.00 40.49 LIG 0.16  HD
ENDROOT
BRANCH 1 5
ATOM      5  CA  ILE P   3      12.628  21.272  41.249  1.00 41.79 LIG 0.18  C 
BRANCH 5 6
ATOM      6  N   ILE P   3      11.838  21.307  40.006  1.00 42.70 LIG-0.35  N 
ATOM      7 H    ILE P   3      11.496  22.075  39.829  1.00 42.70 LIG 0.16  HD
ATOM      8  C   ALA P   2      11.678  20.232  39.233  1.00 42.25 LIG 0.24  C 
ATOM      9 O    ALA P   2      12.164  19.147  39.506  1.00 43.48 LIG-0.27  OA
BRANCH 8 10
ATOM     10  CA  ALA P   2      10.846  20.379  37.962  1.00 41.32 LIG 0.17  C 
ATOM     11  CB  ALA P   2       9.643  21.256  38.221  1.00 39.54 LIG 0.04  C 
BRANCH 10 12
ATOM     12  N   ALA P   2      10.399  19.045  37.581  1.00 41.39 LIG-0.35  N 
ATOM     13 H    ALA P   2      10.807  18.717  36.900  1.00 41.39 LIG 0.16  HD
ATOM     14  C   LEU P   1       9.441  18.409  38.246  1.00 41.33 LIG 0.25  C 
ATOM     15 O    LEU P   1       8.880  18.887  39.236  1.00 41.61 LIG-0.27  OA
BRANCH 14 16
ATOM     16  CA  LEU P   1       9.065  17.024  37.720  1.00 40.25 LIG 0.28  C 
BRANCH 16 17
ATOM     17  N   LEU P   1      10.244  16.124  37.805  1.00 40.65 LIG-0.07  N 
ATOM     18 H2   LEU P   1      10.723  16.190  37.057  1.00 40.65 LIG 0.28  HD
ATOM     19 H1   LEU P   1       9.971  15.284  37.909  1.00 40.65 LIG 0.28  HD
ATOM     20 H3   LEU P   1      10.748  16.360  38.500  1.00 40.65 LIG 0.28  HD
ENDBRANCH 16 17
BRANCH 16 21
ATOM     21  CB  LEU P   1       7.917  16.450  38.555  1.00 38.59 LIG 0.05  C 
BRANCH 21 22
ATOM     22  CG  LEU P   1       6.504  17.047  38.506  1.00 36.61 LIG-0.02  C 
ATOM     23  CD2 LEU P   1       5.510  15.920  38.291  1.00 36.34 LIG 0.01  C 
ATOM     24  CD1 LEU P   1       6.378  18.082  37.399  1.00 35.12 LIG 0.01  C 
ENDBRANCH 21 22
ENDBRANCH 16 21
ENDBRANCH 14 16
ENDBRANCH 10 12
ENDBRANCH 8 10
ENDBRANCH 5 6
BRANCH 5 25
ATOM     25  CB  ILE P   3      14.101  20.955  40.967  1.00 41.77 LIG 0.01  C 
ATOM     26  CG2 ILE P   3      14.711  22.111  40.179  1.00 41.93 LIG 0.01  C 
BRANCH 25 27
ATOM     27  CG1 ILE P   3      14.860  20.758  42.284  1.00 42.12 LIG 0.00  C 
ATOM     28  CD1 ILE P   3      15.109  19.325  42.680  1.00 41.36 LIG 0.01  C 
ENDBRANCH 25 27
ENDBRANCH 5 25
ENDBRANCH 1 5
BRANCH 3 29
ATOM     29  CA  TYR P   4      13.154  23.977  43.856  1.00 39.63 LIG 0.18  C 
BRANCH 29 30
ATOM     30  C   TYR P   4      14.566  24.459  43.510  1.00 40.27 LIG 0.24  C 
ATOM     31  N   SER P   5      15.485  23.523  43.580  1.00 40.75 LIG-0.34  N 
ATOM     32 H    SER P   5      15.304  22.705  43.776  1.00 40.75 LIG 0.16  HD
ATOM     33 O    TYR P   4      14.783  25.631  43.231  1.00 40.83 LIG-0.27  OA
BRANCH 31 34
ATOM     34  CA  SER P   5      16.907  23.761  43.334  1.00 41.35 LIG 0.21  C 
BRANCH 34 35
ATOM     35  CB  SER P   5      17.458  22.797  44.393  1.00 41.35 LIG 0.20  C 
BRANCH 35 36
ATOM     36 OG   SER P   5      17.935  23.849  45.208  1.00 42.37 LIG-0.40  OA
ATOM     37 HG   SER P   5      18.469  24.325  44.768  1.00 42.37 LIG 0.21  HD
ENDBRANCH 35 36
ENDBRANCH 34 35
BRANCH 34 38
ATOM     38  C   SER P   5      17.260  23.919  41.866  1.00 41.28 LIG 0.20  C 
ATOM     39 OXT  SER P   5      17.966  22.829  41.388  1.00 41.68 LIG-0.65  OA
ATOM     40 O    SER P   5      17.325  25.031  41.349  1.00 42.12 LIG-0.65  OA
ENDBRANCH 34 38
ENDBRANCH 31 34
ENDBRANCH 29 30
BRANCH 29 41
ATOM     41  CB  TYR P   4      12.842  23.882  45.368  1.00 37.99 LIG 0.07  C 
BRANCH 41 42
ATOM     42  CG  TYR P   4      14.018  23.744  46.347  1.00 35.75 LIG-0.06  A 
ATOM     43  CD2 TYR P   4      14.075  22.631  47.189  1.00 34.88 LIG 0.01  A 
ATOM     44  CE2 TYR P   4      15.125  22.450  48.072  1.00 35.19 LIG 0.04  A 
ATOM     45  CZ  TYR P   4      16.138  23.380  48.126  1.00 34.95 LIG 0.07  A 
ATOM     46  CE1 TYR P   4      16.111  24.503  47.314  1.00 35.39 LIG 0.04  A 
ATOM     47  CD1 TYR P   4      15.047  24.681  46.428  1.00 35.59 LIG 0.01  A 
BRANCH 45 48
ATOM     48 OH   TYR P   4      17.187  23.196  49.002  1.00 35.19 LIG-0.36  OA
ATOM     49 HH   TYR P   4      17.825  23.698  48.783  1.00 35.19 LIG 0.22  HD
ENDBRANCH 45 48
ENDBRANCH 41 42
ENDBRANCH 29 41
ENDBRANCH 3 29
TORSDOF 19
ENDMDL
MODEL 2
USER: ADFR SOLUTION from run 129
USER: SCORE 14.658891 LL:  -3.163 LR: -14.742 RR:   0.000 FEB:  -9.074
USER: RMSD 1.837982
USER: SEED 128
USER: STATUS no improvement in best 2 clusters for 5 generations
USER: GENES 21
USER: genes 0 Translation |==|  0.50528 0.55703 0.52377
USER: genes 1 Rotation |==|  0.51538 0.51935 0.55191 0.99668
USER: genes 2 Torsion [N]-C--CA-[N] |==|  0.48887
USER: genes 3 Torsion [C]-CA--N-[C] |==|  0.51667
USER: genes 4 Torsion [N]-C--CA-[N] |==|  0.46664
USER: genes 5 Torsion [C]-CA--N-[C] |==|  0.20303
USER: genes 6 Torsion [N]-C--CA-[N] |==|  0.40817
USER: genes 7 Torsion [C]-CA--N-[H2] |==|  0.91806
USER: genes 8 Torsion [C]-CA--CB-[CG] |==|  0.31383
USER: genes 9 Torsion [CA]-CB--CG-[CD2] |==|  0.46105
USER: genes 10 Torsion [C]-CA--CB-[CG2] |==|  0.88582
USER: genes 11 Torsion [CA]-CB--CG1-[CD1] |==|  0.62048
USER: genes 12 Torsion [C]-N--CA-[CB] |==|  0.42570
USER: genes 13 Torsion [N]-CA--C-[N] |==|  0.17815
USER: genes 14 Torsion [C]-N--CA-[CB] |==|  0.75349
USER: genes 15 Torsion [N]-CA--CB-[OG] |==|  0.43818
USER: genes 16 Torsion [CA]-CB--OG-[HG] |==|  0.19809
USER: genes 17 Torsion [N]-CA--C-[OXT] |==|  0.43240
USER: genes 18 Torsion [N]-CA--CB-[CG] |==|  0.24156
USER: genes 19 Torsion [CA]-CB--CG-[CD2] |==|  0.82927
USER: genes 20 Torsion [CE2]-CZ--OH-[HH] |==|  0.37599
ROOT
ATOM      1  C   ILE P   3      12.658  22.661  41.893  1.00 41.75 LIG 0.24  C 
ATOM      2 O    ILE P   3      12.350  23.641  41.219  1.00 43.02 LIG-0.27  OA
ATOM      3  N   TYR P   4      13.167  22.769  43.109  1.00 40.49 LIG-0.35  N 
ATOM      4 H    TYR P   4      13.324  22.107  43.635  1.00 40.49 LIG 0.16  HD
ENDROOT
BRANCH 1 5
ATOM      5  CA  ILE P   3      12.434  21.245  41.345  1.00 41.79 LIG 0.18  C 
BRANCH 5 6
ATOM      6  N   ILE P   3      11.777  21.293  40.027  1.00 42.70 LIG-0.35  N 
ATOM      7 H    ILE P   3      11.685  22.086  39.710  1.00 42.70 LIG 0.16  HD
ATOM      8  C   ALA P   2      11.368  20.193  39.394  1.00 42.25 LIG 0.24  C 
ATOM      9 O    ALA P   2      11.500  19.075  39.864  1.00 43.48 LIG-0.27  OA
BRANCH 8 10
ATOM     10  CA  ALA P   2      10.707  20.355  38.028  1.00 41.32 LIG 0.17  C 
ATOM     11  CB  ALA P   2       9.317  20.927  38.184  1.00 39.54 LIG 0.04  C 
BRANCH 10 12
ATOM     12  N   ALA P   2      10.619  19.029  37.430  1.00 41.39 LIG-0.35  N 
ATOM     13 H    ALA P   2      11.173  18.894  36.786  1.00 41.39 LIG 0.16  HD
ATOM     14  C   LEU P   1       9.751  18.120  37.860  1.00 41.33 LIG 0.25  C 
ATOM     15 O    LEU P   1       8.978  18.322  38.801  1.00 41.61 LIG-0.27  OA
BRANCH 14 16
ATOM     16  CA  LEU P   1       9.763  16.780  37.125  1.00 40.25 LIG 0.28  C 
BRANCH 16 17
ATOM     17  N   LEU P   1       9.430  15.689  38.076  1.00 40.65 LIG-0.07  N 
ATOM     18 H2   LEU P   1       9.700  15.915  38.893  1.00 40.65 LIG 0.28  HD
ATOM     19 H1   LEU P   1       9.839  14.940  37.825  1.00 40.65 LIG 0.28  HD
ATOM     20 H3   LEU P   1       8.550  15.558  38.081  1.00 40.65 LIG 0.28  HD
ENDBRANCH 16 17
BRANCH 16 21
ATOM     21  CB  LEU P   1       8.735  16.807  35.989  1.00 38.59 LIG 0.05  C 
BRANCH 21 22
ATOM     22  CG  LEU P   1       9.158  16.763  34.515  1.00 36.61 LIG-0.02  C 
ATOM     23  CD2 LEU P   1       7.934  16.455  33.670  1.00 36.34 LIG 0.01  C 
ATOM     24  CD1 LEU P   1      10.240  15.721  34.280  1.00 35.12 LIG 0.01  C 
ENDBRANCH 21 22
ENDBRANCH 16 21
ENDBRANCH 14 16
ENDBRANCH 10 12
ENDBRANCH 8 10
ENDBRANCH 5 6
BRANCH 5 25
ATOM     25  CB  ILE P   3      13.831  20.622  41.251  1.00 41.77 LIG 0.01  C 
ATOM     26  CG2 ILE P   3      14.803  21.672  40.719  1.00 41.93 LIG 0.01  C 
BRANCH 25 27
ATOM     27  CG1 ILE P   3      14.286  20.136  42.632  1.00 42.12 LIG 0.00  C 
ATOM     28  CD1 ILE P   3      15.716  20.454  42.991  1.00 41.36 LIG 0.01  C 
ENDBRANCH 25 27
ENDBRANCH 5 25
ENDBRANCH 1 5
BRANCH 3 29
ATOM     29  CA  TYR P   4      13.501  24.068  43.643  1.00 39.63 LIG 0.18  C 
BRANCH 29 30
ATOM     30  C   TYR P   4      14.868  24.401  43.038  1.00 40.27 LIG 0.24  C 
ATOM     31  N   SER P   5      14.859  24.532  41.732  1.00 40.75 LIG-0.34  N 
ATOM     32 H    SER P   5      14.143  24.463  41.260  1.00 40.75 LIG 0.16  HD
ATOM     33 O    TYR P   4      15.864  24.495  43.743  1.00 40.83 LIG-0.27  OA
BRANCH 31 34
ATOM     34  CA  SER P   5      16.055  24.807  40.935  1.00 41.35 LIG 0.21  C 
BRANCH 34 35
ATOM     35  CB  SER P   5      15.994  26.338  41.005  1.00 41.35 LIG 0.20  C 
BRANCH 35 36
ATOM     36 OG   SER P   5      17.373  26.478  40.726  1.00 42.37 LIG-0.40  OA
ATOM     37 HG   SER P   5      17.519  26.280  39.923  1.00 42.37 LIG 0.21  HD
ENDBRANCH 35 36
ENDBRANCH 34 35
BRANCH 34 38
ATOM     38  C   SER P   5      17.205  23.853  41.202  1.00 41.28 LIG 0.20  C 
ATOM     39 OXT  SER P   5      18.068  23.775  40.123  1.00 41.68 LIG-0.65  OA
ATOM     40 O    SER P   5      17.101  22.956  42.034  1.00 42.12 LIG-0.65  OA
ENDBRANCH 34 38
ENDBRANCH 31 34
ENDBRANCH 29 30
BRANCH 29 41
ATOM     41  CB  TYR P   4      13.439  24.099  45.188  1.00 37.99 LIG 0.07  C 
BRANCH 41 42
ATOM     42  CG  TYR P   4      14.691  23.685  45.976  1.00 35.75 LIG-0.06  A 
ATOM     43  CD2 TYR P   4      15.188  22.389  45.832  1.00 34.88 LIG 0.01  A 
ATOM     44  CE2 TYR P   4      16.327  21.976  46.503  1.00 35.19 LIG 0.04  A 
ATOM     45  CZ  TYR P   4      16.987  22.857  47.329  1.00 34.95 LIG 0.07  A 
ATOM     46  CE1 TYR P   4      16.518  24.148  47.506  1.00 35.39 LIG 0.04  A 
ATOM     47  CD1 TYR P   4      15.368  24.557  46.829  1.00 35.59 LIG 0.01  A 
BRANCH 45 48
ATOM     48 OH   TYR P   4      18.125  22.447  47.993  1.00 35.19 LIG-0.36  OA
ATOM     49 HH   TYR P   4      18.714  23.043  47.933  1.00 35.19 LIG 0.22  HD
ENDBRANCH 45 48
ENDBRANCH 41 42
ENDBRANCH 29 41
ENDBRANCH 3 29
TORSDOF 19
ENDMDL
MODEL 3
USER: ADFR SOLUTION from run 115
USER: SCORE 16.963759 LL:  -3.727 LR: -14.215 RR:   0.000 FEB:  -8.547
USER: RMSD 1.639742
USER: SEED 114
USER: STATUS no improvement in best 3 clusters for 5 generations
USER: GENES 21
USER: genes 0 Translation |==|  0.53446 0.54986 0.49391
USER: genes 1 Rotation |==|  0.33336 0.36424 0.35086 0.92609
USER: genes 2 Torsion [N]-C--CA-[N] |==|  0.47032
USER: genes 3 Torsion [C]-CA--N-[C] |==|  0.56316
USER: genes 4 Torsion [N]-C--CA-[N] |==|  0.46439
USER: genes 5 Torsion [C]-CA--N-[C] |==|  0.78805
USER: genes 6 Torsion [N]-C--CA-[N] |==|  0.46276
USER: genes 7 Torsion [C]-CA--N-[H2] |==|  0.80264
USER: genes 8 Torsion [C]-CA--CB-[CG] |==|  0.23119
USER: genes 9 Torsion [CA]-CB--CG-[CD2] |==|  0.56320
USER: genes 10 Torsion [C]-CA--CB-[CG2] |==|  0.85638
USER: genes 11 Torsion [CA]-CB--CG1-[CD1] |==|  0.71129
USER: genes 12 Torsion [C]-N--CA-[CB] |==|  0.51668
USER: genes 13 Torsion [N]-CA--C-[N] |==|  0.32408
USER: genes 14 Torsion [C]-N--CA-[CB] |==|  0.40929
USER: genes 15 Torsion [N]-CA--CB-[OG] |==|  0.04979
USER: genes 16 Torsion [CA]-CB--OG-[HG] |==|  0.31991
USER: genes 17 Torsion [N]-CA--C-[OXT] |==|  0.41066
USER: genes 18 Torsion [N]-CA--CB-[CG] |==|  0.26637
USER: genes 19 Torsion [CA]-CB--CG-[CD2] |==|  0.68019
USER: genes 20 Torsion [CE2]-CZ--OH-[HH] |==|  0.58181
ROOT
ATOM      1  C   ILE P   3      13.534  22.446  40.997  1.00 41.75 LIG 0.24  C 
ATOM      2 O    ILE P   3      14.369  22.499  40.098  1.00 43.02 LIG-0.27  OA
ATOM      3  N   TYR P   4      13.556  23.266  42.035  1.00 40.49 LIG-0.35  N 
ATOM      4 H    TYR P   4      12.948  23.305  42.641  1.00 40.49 LIG 0.16  HD
ENDROOT
BRANCH 1 5
ATOM      5  CA  ILE P   3      12.394  21.420  40.932  1.00 41.79 LIG 0.18  C 
BRANCH 5 6
ATOM      6  N   ILE P   3      12.358  20.761  39.615  1.00 42.70 LIG-0.35  N 
ATOM      7 H    ILE P   3      13.105  20.784  39.191  1.00 42.70 LIG 0.16  HD
ATOM      8  C   ALA P   2      11.255  20.185  39.136  1.00 42.25 LIG 0.24  C 
ATOM      9 O    ALA P   2      10.200  20.171  39.749  1.00 43.48 LIG-0.27  OA
BRANCH 8 10
ATOM     10  CA  ALA P   2      11.329  19.524  37.762  1.00 41.32 LIG 0.17  C 
ATOM     11  CB  ALA P   2      11.375  20.575  36.677  1.00 39.54 LIG 0.04  C 
BRANCH 10 12
ATOM     12  N   ALA P   2      10.125  18.719  37.605  1.00 41.39 LIG-0.35  N 
ATOM     13 H    ALA P   2       9.530  19.069  37.091  1.00 41.39 LIG 0.16  HD
ATOM     14  C   LEU P   1       9.979  17.547  38.212  1.00 41.33 LIG 0.25  C 
ATOM     15 O    LEU P   1      10.851  17.049  38.930  1.00 41.61 LIG-0.27  OA
BRANCH 14 16
ATOM     16  CA  LEU P   1       8.654  16.824  37.967  1.00 40.25 LIG 0.28  C 
BRANCH 16 17
ATOM     17  N   LEU P   1       8.764  15.417  38.430  1.00 40.65 LIG-0.07  N 
ATOM     18 H2   LEU P   1       9.295  14.963  37.879  1.00 40.65 LIG 0.28  HD
ATOM     19 H1   LEU P   1       7.956  15.043  38.438  1.00 40.65 LIG 0.28  HD
ATOM     20 H3   LEU P   1       9.105  15.401  39.251  1.00 40.65 LIG 0.28  HD
ENDBRANCH 16 17
BRANCH 16 21
ATOM     21  CB  LEU P   1       7.531  17.533  38.730  1.00 38.59 LIG 0.05  C 
BRANCH 21 22
ATOM     22  CG  LEU P   1       6.818  18.766  38.159  1.00 36.61 LIG-0.02  C 
ATOM     23  CD2 LEU P   1       6.206  19.547  39.308  1.00 36.34 LIG 0.01  C 
ATOM     24  CD1 LEU P   1       5.745  18.370  37.157  1.00 35.12 LIG 0.01  C 
ENDBRANCH 21 22
ENDBRANCH 16 21
ENDBRANCH 14 16
ENDBRANCH 10 12
ENDBRANCH 8 10
ENDBRANCH 5 6
BRANCH 5 25
ATOM     25  CB  ILE P   3      12.691  20.415  42.051  1.00 41.77 LIG 0.01  C 
ATOM     26  CG2 ILE P   3      14.129  19.925  41.903  1.00 41.93 LIG 0.01  C 
BRANCH 25 27
ATOM     27  CG1 ILE P   3      12.500  21.077  43.420  1.00 42.12 LIG 0.00  C 
ATOM     28  CD1 ILE P   3      13.770  21.447  44.143  1.00 41.36 LIG 0.01  C 
ENDBRANCH 25 27
ENDBRANCH 5 25
ENDBRANCH 1 5
BRANCH 3 29
ATOM     29  CA  TYR P   4      14.656  24.183  42.211  1.00 39.63 LIG 0.18  C 
BRANCH 29 30
ATOM     30  C   TYR P   4      15.913  23.328  42.025  1.00 40.27 LIG 0.24  C 
ATOM     31  N   SER P   5      16.651  23.675  40.996  1.00 40.75 LIG-0.34  N 
ATOM     32 H    SER P   5      16.459  24.342  40.487  1.00 40.75 LIG 0.16  HD
ATOM     33 O    TYR P   4      16.155  22.388  42.773  1.00 40.83 LIG-0.27  OA
BRANCH 31 34
ATOM     34  CA  SER P   5      17.873  22.975  40.599  1.00 41.35 LIG 0.21  C 
BRANCH 34 35
ATOM     35  CB  SER P   5      17.750  23.200  39.086  1.00 41.35 LIG 0.20  C 
BRANCH 35 36
ATOM     36 OG   SER P   5      16.823  24.255  39.246  1.00 42.37 LIG-0.40  OA
ATOM     37 HG   SER P   5      17.163  24.972  38.969  1.00 42.37 LIG 0.21  HD
ENDBRANCH 35 36
ENDBRANCH 34 35
BRANCH 34 38
ATOM     38  C   SER P   5      19.044  23.201  41.538  1.00 41.28 LIG 0.20  C 
ATOM     39 OXT  SER P   5      19.870  22.093  41.603  1.00 41.68 LIG-0.65  OA
ATOM     40 O    SER P   5      18.980  24.036  42.437  1.00 42.12 LIG-0.65  OA
ENDBRANCH 34 38
ENDBRANCH 31 34
ENDBRANCH 29 30
BRANCH 29 41
ATOM     41  CB  TYR P   4      14.572  24.946  43.554  1.00 37.99 LIG 0.07  C 
BRANCH 41 42
ATOM     42  CG  TYR P   4      15.363  24.402  44.753  1.00 35.75 LIG-0.06  A 
ATOM     43  CD2 TYR P   4      14.669  23.936  45.871  1.00 34.88 LIG 0.01  A 
ATOM     44  CE2 TYR P   4      15.335  23.415  46.966  1.00 35.19 LIG 0.04  A 
ATOM     45  CZ  TYR P   4      16.710  23.350  46.959  1.00 34.95 LIG 0.07  A 
ATOM     46  CE1 TYR P   4      17.435  23.812  45.873  1.00 35.39 LIG 0.04  A 
ATOM     47  CD1 TYR P   4      16.756  24.339  44.772  1.00 35.59 LIG 0.01  A 
BRANCH 45 48
ATOM     48 OH   TYR P   4      17.374  22.825  48.049  1.00 35.19 LIG-0.36  OA
ATOM     49 HH   TYR P   4      18.130  23.185  48.116  1.00 35.19 LIG 0.22  HD
ENDBRANCH 45 48
ENDBRANCH 41 42
ENDBRANCH 29 41
ENDBRANCH 3 29
TORSDOF 19
ENDMDL
