MODEL 1
USER: ADFR SOLUTION from run 10
USER: SCORE 20.594268 LL:  -4.475 LR: -18.046 RR:   0.000 FEB: -10.887
USER: RMSD 1.947587
USER: SEED 39067
USER: STATUS no improvement in best 1 clusters for 5 generations
USER: GENES 26
USER: genes 0 Translation |==|  0.53047 0.51750 0.51580
USER: genes 1 Rotation |==|  0.33956 0.47959 0.54783 0.97070
USER: genes 2 Torsion [N]-C--CA-[N] |==|  0.27073
USER: genes 3 Torsion [C]-CA--N-[C] |==|  0.67429
USER: genes 4 Torsion [N]-C--CA-[N] |==|  0.10795
USER: genes 5 Torsion [C]-CA--N-[C] |==|  0.48977
USER: genes 6 Torsion [N]-C--CA-[N] |==|  0.17626
USER: genes 7 Torsion [C]-CA--CB-[CG] |==|  0.83998
USER: genes 8 Torsion [CA]-CB--CG-[CD2] |==|  0.35185
USER: genes 9 Torsion [C]-CA--N-[H1] |==|  0.48097
USER: genes 10 Torsion [C]-CA--CB-[CG] |==|  0.82100
USER: genes 11 Torsion [CA]-CB--CG-[CD2] |==|  0.76763
USER: genes 12 Torsion [C]-CA--CB-[OG] |==|  0.43229
USER: genes 13 Torsion [CA]-CB--OG-[HG] |==|  0.86034
USER: genes 14 Torsion [C]-N--CA-[C] |==|  0.79434
USER: genes 15 Torsion [N]-CA--C-[N] |==|  0.32237
USER: genes 16 Torsion [C]-N--CA-[C] |==|  0.58749
USER: genes 17 Torsion [N]-CA--C-[OXT] |==|  0.02233
USER: genes 18 Torsion [N]-CA--CB-[CG] |==|  0.65599
USER: genes 19 Torsion [CA]-CB--CG-[CD] |==|  0.74333
USER: genes 20 Torsion [CB]-CG--CD-[CE] |==|  0.38068
USER: genes 21 Torsion [CG]-CD--CE-[NZ] |==|  0.69929
USER: genes 22 Torsion [CD]-CE--NZ-[HZ1] |==|  0.47607
USER: genes 23 Torsion [N]-CA--CB-[CG] |==|  0.47724
USER: genes 24 Torsion [CA]-CB--CG-[CD2] |==|  0.66114
USER: genes 25 Torsion [CE2]-CZ--OH-[HH] |==|  0.99715
ROOT
ATOM      1  C   SER P   3      13.944  20.805  41.404  1.00 32.74 LIG 0.24  C 
ATOM      2 O    SER P   3      14.882  20.093  41.747  1.00 33.45 LIG-0.27  OA
ATOM      3  N   TYR P   4      14.099  22.046  40.952  1.00 32.75 LIG-0.35  N 
ATOM      4 H    TYR P   4      13.446  22.555  40.720  1.00 32.75 LIG 0.16  HD
ENDROOT
BRANCH 1 5
ATOM      5  CA  SER P   3      12.511  20.296  41.491  1.00 31.85 LIG 0.20  C 
BRANCH 5 6
ATOM      6  N   SER P   3      12.086  19.481  40.353  1.00 31.96 LIG-0.34  N 
ATOM      7 H    SER P   3      12.520  18.747  40.239  1.00 31.96 LIG 0.16  HD
ATOM      8  C   LEU P   2      11.089  19.907  39.585  1.00 31.93 LIG 0.24  C 
ATOM      9 O    LEU P   2      10.524  20.977  39.797  1.00 32.53 LIG-0.27  OA
BRANCH 8 10
ATOM     10  CA  LEU P   2      10.653  19.054  38.393  1.00 41.07 LIG 0.18  C 
BRANCH 10 11
ATOM     11  N   LEU P   2      10.601  17.596  38.466  1.00 42.45 LIG-0.35  N 
ATOM     12  C   PHE P   1       9.989  17.224  36.994  1.00 42.69 LIG 0.25  C 
ATOM     13 O    PHE P   1       9.655  17.699  35.908  1.00 43.50 LIG-0.27  OA
ATOM     14 H    LEU P   2      10.849  17.137  39.149  1.00 42.45 LIG 0.16  HD
BRANCH 12 15
ATOM     15  CA  PHE P   1       9.948  15.715  37.197  1.00 41.57 LIG 0.28  C 
BRANCH 15 16
ATOM     16  CB  PHE P   1       9.479  15.065  35.892  1.00 35.06 LIG 0.08  C 
BRANCH 16 17
ATOM     17  CG  PHE P   1       8.138  15.547  35.415  1.00 31.19 LIG-0.06  A 
ATOM     18  CD1 PHE P   1       7.032  15.528  36.259  1.00 39.51 LIG 0.01  A 
ATOM     19  CE1 PHE P   1       5.792  15.992  35.823  1.00 39.01 LIG 0.00  A 
ATOM     20  CZ  PHE P   1       5.649  16.482  34.528  1.00 38.87 LIG 0.00  A 
ATOM     21  CE2 PHE P   1       6.747  16.505  33.676  1.00 39.01 LIG 0.00  A 
ATOM     22  CD2 PHE P   1       7.982  16.038  34.121  1.00 39.51 LIG 0.01  A 
ENDBRANCH 16 17
ENDBRANCH 15 16
BRANCH 15 23
ATOM     23  N   PHE P   1       8.999  15.404  38.305  1.00 43.28 LIG-0.07  N 
ATOM     24 H1   PHE P   1       8.893  14.522  38.366  1.00 43.28 LIG 0.28  HD
ATOM     25 H2   PHE P   1       9.325  15.715  39.072  1.00 43.28 LIG 0.28  HD
ATOM     26 H3   PHE P   1       8.213  15.787  38.139  1.00 43.28 LIG 0.28  HD
ENDBRANCH 15 23
ENDBRANCH 12 15
ENDBRANCH 10 11
BRANCH 10 27
ATOM     27  CB  LEU P   2       9.291  19.577  37.930  1.00 36.43 LIG 0.04  C 
BRANCH 27 28
ATOM     28  CG  LEU P   2       8.030  19.504  38.810  1.00 34.11 LIG-0.02  C 
ATOM     29  CD1 LEU P   2       7.043  20.597  38.434  1.00 33.27 LIG 0.01  C 
ATOM     30  CD2 LEU P   2       7.390  18.152  38.680  1.00 26.81 LIG 0.01  C 
ENDBRANCH 27 28
ENDBRANCH 10 27
ENDBRANCH 8 10
ENDBRANCH 5 6
BRANCH 5 31
ATOM     31  CB  SER P   3      12.327  19.525  42.795  1.00 31.53 LIG 0.20  C 
BRANCH 31 32
ATOM     32 OG   SER P   3      10.962  19.530  43.172  1.00 31.05 LIG-0.40  OA
ATOM     33 HG   SER P   3      10.668  20.316  43.151  1.00 31.05 LIG 0.21  HD
ENDBRANCH 31 32
ENDBRANCH 5 31
ENDBRANCH 1 5
BRANCH 3 34
ATOM     34  CA  TYR P   4      15.416  22.662  40.809  1.00 31.95 LIG 0.18  C 
BRANCH 34 35
ATOM     35  C   TYR P   4      15.940  23.018  42.196  1.00 31.84 LIG 0.24  C 
ATOM     36 O    TYR P   4      15.350  23.846  42.892  1.00 32.23 LIG-0.27  OA
ATOM     37  N   LYS P   5      17.038  22.386  42.598  1.00 32.16 LIG-0.34  N 
ATOM     38 H    LYS P   5      17.446  21.777  42.148  1.00 32.16 LIG 0.16  HD
BRANCH 37 39
ATOM     39  CA  LYS P   5      17.629  22.707  43.871  1.00 31.76 LIG 0.18  C 
BRANCH 39 40
ATOM     40  C   LYS P   5      19.147  22.535  43.860  1.00 32.94 LIG 0.20  C 
ATOM     41 OXT  LYS P   5      19.762  22.301  42.796  1.00 33.46 LIG-0.65  OA
ATOM     42 O    LYS P   5      19.832  22.989  44.770  1.00 33.40 LIG-0.65  OA
ENDBRANCH 39 40
BRANCH 39 43
ATOM     43  CB  LYS P   5      17.030  21.825  44.962  1.00 39.97 LIG 0.04  C 
BRANCH 43 44
ATOM     44  CG  LYS P   5      16.437  22.642  46.070  1.00 38.10 LIG 0.00  C 
BRANCH 44 45
ATOM     45  CD  LYS P   5      17.410  22.855  47.107  1.00 35.88 LIG 0.03  C 
BRANCH 45 46
ATOM     46  CE  LYS P   5      17.531  23.941  47.626  1.00 33.52 LIG 0.23  C 
BRANCH 46 47
ATOM     47  NZ  LYS P   5      18.733  24.762  47.329  1.00 33.07 LIG-0.08  N 
ATOM     48 HZ1  LYS P   5      18.630  25.575  47.675  1.00 33.07 LIG 0.27  HD
ATOM     49 HZ2  LYS P   5      19.452  24.376  47.686  1.00 33.07 LIG 0.27  HD
ATOM     50 HZ3  LYS P   5      18.839  24.826  46.447  1.00 33.07 LIG 0.27  HD
ENDBRANCH 46 47
ENDBRANCH 45 46
ENDBRANCH 44 45
ENDBRANCH 43 44
ENDBRANCH 39 43
ENDBRANCH 37 39
ENDBRANCH 34 35
BRANCH 34 51
ATOM     51  CB  TYR P   4      15.298  23.925  39.948  1.00 30.77 LIG 0.07  C 
BRANCH 51 52
ATOM     52  CG  TYR P   4      16.547  24.785  39.867  1.00 30.74 LIG-0.06  A 
ATOM     53  CD2 TYR P   4      16.515  26.122  40.263  1.00 30.34 LIG 0.01  A 
ATOM     54  CE2 TYR P   4      17.661  26.912  40.235  1.00 30.16 LIG 0.04  A 
ATOM     55  CZ  TYR P   4      18.860  26.367  39.806  1.00 30.33 LIG 0.07  A 
ATOM     56  CE1 TYR P   4      18.921  25.042  39.400  1.00 30.37 LIG 0.04  A 
ATOM     57  CD1 TYR P   4      17.763  24.258  39.430  1.00 30.89 LIG 0.01  A 
BRANCH 55 58
ATOM     58 OH   TYR P   4      19.997  27.142  39.805  1.00 30.16 LIG-0.36  OA
ATOM     59 HH   TYR P   4      19.809  27.916  40.073  1.00 30.16 LIG 0.22  HD
ENDBRANCH 55 58
ENDBRANCH 51 52
ENDBRANCH 34 51
ENDBRANCH 3 34
TORSDOF 24
ENDMDL
MODEL 2
USER: ADFR SOLUTION from run 26
USER: SCORE 18.818460 LL:  -4.080 LR: -17.756 RR:   0.000 FEB: -10.597
USER: RMSD 1.300647
USER: SEED 25
USER: STATUS 1 or 2 clusters left
USER: GENES 26
USER: genes 0 Translation |==|  0.53269 0.49888 0.53083
USER: genes 1 Rotation |==|  0.39942 0.45044 0.44359 0.98399
USER: genes 2 Torsion [N]-C--CA-[N] |==|  0.34397
USER: genes 3 Torsion [C]-CA--N-[C] |==|  0.61138
USER: genes 4 Torsion [N]-C--CA-[N] |==|  0.09914
USER: genes 5 Torsion [C]-CA--N-[C] |==|  0.48158
USER: genes 6 Torsion [N]-C--CA-[N] |==|  0.18152
USER: genes 7 Torsion [C]-CA--CB-[CG] |==|  0.63926
USER: genes 8 Torsion [CA]-CB--CG-[CD2] |==|  0.29214
USER: genes 9 Torsion [C]-CA--N-[H1] |==|  0.50319
USER: genes 10 Torsion [C]-CA--CB-[CG] |==|  0.84658
USER: genes 11 Torsion [CA]-CB--CG-[CD2] |==|  0.74819
USER: genes 12 Torsion [C]-CA--CB-[OG] |==|  0.14677
USER: genes 13 Torsion [CA]-CB--OG-[HG] |==|  0.55576
USER: genes 14 Torsion [C]-N--CA-[C] |==|  0.77039
USER: genes 15 Torsion [N]-CA--C-[N] |==|  0.70045
USER: genes 16 Torsion [C]-N--CA-[C] |==|  0.19430
USER: genes 17 Torsion [N]-CA--C-[OXT] |==|  0.11439
USER: genes 18 Torsion [N]-CA--CB-[CG] |==|  0.69854
USER: genes 19 Torsion [CA]-CB--CG-[CD] |==|  0.86833
USER: genes 20 Torsion [CB]-CG--CD-[CE] |==|  0.87204
USER: genes 21 Torsion [CG]-CD--CE-[NZ] |==|  0.36436
USER: genes 22 Torsion [CD]-CE--NZ-[HZ1] |==|  0.66232
USER: genes 23 Torsion [N]-CA--CB-[CG] |==|  0.56598
USER: genes 24 Torsion [CA]-CB--CG-[CD2] |==|  0.24849
USER: genes 25 Torsion [CE2]-CZ--OH-[HH] |==|  0.99807
ROOT
ATOM      1  C   SER P   3      14.011  20.246  41.855  1.00 32.74 LIG 0.24  C 
ATOM      2 O    SER P   3      14.559  19.182  42.117  1.00 33.45 LIG-0.27  OA
ATOM      3  N   TYR P   4      14.655  21.410  41.828  1.00 32.75 LIG-0.35  N 
ATOM      4 H    TYR P   4      14.275  22.162  41.656  1.00 32.75 LIG 0.16  HD
ENDROOT
BRANCH 1 5
ATOM      5  CA  SER P   3      12.519  20.297  41.548  1.00 31.85 LIG 0.20  C 
BRANCH 5 6
ATOM      6  N   SER P   3      12.098  19.439  40.441  1.00 31.96 LIG-0.34  N 
ATOM      7 H    SER P   3      12.473  18.665  40.407  1.00 31.96 LIG 0.16  HD
ATOM      8  C   LEU P   2      11.192  19.888  39.580  1.00 31.93 LIG 0.24  C 
ATOM      9 O    LEU P   2      10.709  21.013  39.680  1.00 32.53 LIG-0.27  OA
BRANCH 8 10
ATOM     10  CA  LEU P   2      10.759  18.989  38.421  1.00 41.07 LIG 0.18  C 
BRANCH 10 11
ATOM     11  N   LEU P   2      10.642  17.540  38.570  1.00 42.45 LIG-0.35  N 
ATOM     12  C   PHE P   1       9.987  17.122  37.129  1.00 42.69 LIG 0.25  C 
ATOM     13 O    PHE P   1       9.655  17.556  36.026  1.00 43.50 LIG-0.27  OA
ATOM     14 H    LEU P   2      10.882  17.106  39.273  1.00 42.45 LIG 0.16  HD
BRANCH 12 15
ATOM     15  CA  PHE P   1       9.882  15.629  37.412  1.00 41.57 LIG 0.28  C 
BRANCH 15 16
ATOM     16  CB  PHE P   1       9.405  14.929  36.135  1.00 35.06 LIG 0.08  C 
BRANCH 16 17
ATOM     17  CG  PHE P   1       8.240  14.003  36.343  1.00 31.19 LIG-0.06  A 
ATOM     18  CD1 PHE P   1       8.412  12.771  36.965  1.00 39.51 LIG 0.01  A 
ATOM     19  CE1 PHE P   1       7.329  11.918  37.174  1.00 39.01 LIG 0.00  A 
ATOM     20  CZ  PHE P   1       6.055  12.298  36.758  1.00 38.87 LIG 0.00  A 
ATOM     21  CE2 PHE P   1       5.873  13.526  36.135  1.00 39.01 LIG 0.00  A 
ATOM     22  CD2 PHE P   1       6.962  14.371  35.929  1.00 39.51 LIG 0.01  A 
ENDBRANCH 16 17
ENDBRANCH 15 16
BRANCH 15 23
ATOM     23  N   PHE P   1       8.905  15.415  38.519  1.00 43.28 LIG-0.07  N 
ATOM     24 H1   PHE P   1       8.849  14.546  38.702  1.00 43.28 LIG 0.28  HD
ATOM     25 H2   PHE P   1       9.177  15.853  39.244  1.00 43.28 LIG 0.28  HD
ATOM     26 H3   PHE P   1       8.105  15.719  38.272  1.00 43.28 LIG 0.28  HD
ENDBRANCH 15 23
ENDBRANCH 12 15
ENDBRANCH 10 11
BRANCH 10 27
ATOM     27  CB  LEU P   2       9.436  19.541  37.883  1.00 36.43 LIG 0.04  C 
BRANCH 27 28
ATOM     28  CG  LEU P   2       8.202  19.759  38.776  1.00 34.11 LIG-0.02  C 
ATOM     29  CD1 LEU P   2       7.398  20.961  38.305  1.00 33.27 LIG 0.01  C 
ATOM     30  CD2 LEU P   2       7.347  18.526  38.784  1.00 26.81 LIG 0.01  C 
ENDBRANCH 27 28
ENDBRANCH 10 27
ENDBRANCH 8 10
ENDBRANCH 5 6
BRANCH 5 31
ATOM     31  CB  SER P   3      11.733  19.960  42.811  1.00 31.53 LIG 0.20  C 
BRANCH 31 32
ATOM     32 OG   SER P   3      12.153  20.791  43.879  1.00 31.05 LIG-0.40  OA
ATOM     33 HG   SER P   3      11.937  20.439  44.610  1.00 31.05 LIG 0.21  HD
ENDBRANCH 31 32
ENDBRANCH 5 31
ENDBRANCH 1 5
BRANCH 3 34
ATOM     34  CA  TYR P   4      16.087  21.511  42.096  1.00 31.95 LIG 0.18  C 
BRANCH 34 35
ATOM     35  C   TYR P   4      16.299  21.545  43.606  1.00 31.84 LIG 0.24  C 
ATOM     36 O    TYR P   4      16.142  20.527  44.281  1.00 32.23 LIG-0.27  OA
ATOM     37  N   LYS P   5      16.665  22.711  44.129  1.00 32.16 LIG-0.34  N 
ATOM     38 H    LYS P   5      16.819  23.425  43.675  1.00 32.16 LIG 0.16  HD
BRANCH 37 39
ATOM     39  CA  LYS P   5      16.831  22.842  45.553  1.00 31.76 LIG 0.18  C 
BRANCH 39 40
ATOM     40  C   LYS P   5      18.052  22.080  46.063  1.00 32.94 LIG 0.20  C 
ATOM     41 OXT  LYS P   5      19.130  22.089  45.426  1.00 33.46 LIG-0.65  OA
ATOM     42 O    LYS P   5      18.147  21.776  47.247  1.00 33.40 LIG-0.65  OA
ENDBRANCH 39 40
BRANCH 39 43
ATOM     43  CB  LYS P   5      15.584  22.335  46.272  1.00 39.97 LIG 0.04  C 
BRANCH 43 44
ATOM     44  CG  LYS P   5      14.796  23.460  46.872  1.00 38.10 LIG 0.00  C 
BRANCH 44 45
ATOM     45  CD  LYS P   5      15.666  24.347  47.594  1.00 35.88 LIG 0.03  C 
BRANCH 45 46
ATOM     46  CE  LYS P   5      16.501  23.911  48.353  1.00 33.52 LIG 0.23  C 
BRANCH 46 47
ATOM     47  NZ  LYS P   5      17.900  24.405  48.261  1.00 33.07 LIG-0.08  N 
ATOM     48 HZ1  LYS P   5      18.447  23.720  48.107  1.00 33.07 LIG 0.27  HD
ATOM     49 HZ2  LYS P   5      17.964  24.992  47.594  1.00 33.07 LIG 0.27  HD
ATOM     50 HZ3  LYS P   5      18.127  24.799  49.026  1.00 33.07 LIG 0.27  HD
ENDBRANCH 46 47
ENDBRANCH 45 46
ENDBRANCH 44 45
ENDBRANCH 43 44
ENDBRANCH 39 43
ENDBRANCH 37 39
ENDBRANCH 34 35
BRANCH 34 51
ATOM     51  CB  TYR P   4      16.636  22.792  41.456  1.00 30.77 LIG 0.07  C 
BRANCH 51 52
ATOM     52  CG  TYR P   4      18.122  22.788  41.144  1.00 30.74 LIG-0.06  A 
ATOM     53  CD2 TYR P   4      18.588  22.329  39.912  1.00 30.34 LIG 0.01  A 
ATOM     54  CE2 TYR P   4      19.943  22.359  39.595  1.00 30.16 LIG 0.04  A 
ATOM     55  CZ  TYR P   4      20.853  22.852  40.515  1.00 30.33 LIG 0.07  A 
ATOM     56  CE1 TYR P   4      20.420  23.309  41.751  1.00 30.37 LIG 0.04  A 
ATOM     57  CD1 TYR P   4      19.057  23.273  42.061  1.00 30.89 LIG 0.01  A 
BRANCH 55 58
ATOM     58 OH   TYR P   4      22.188  22.906  40.189  1.00 30.16 LIG-0.36  OA
ATOM     59 HH   TYR P   4      22.300  22.601  39.414  1.00 30.16 LIG 0.22  HD
ENDBRANCH 55 58
ENDBRANCH 51 52
ENDBRANCH 34 51
ENDBRANCH 3 34
TORSDOF 24
ENDMDL
