MODEL 1
USER: ADFR SOLUTION from run 29
USER: SCORE 14.722871 LL:  -4.171 LR: -11.614 RR:   0.000 FEB:  -5.648
USER: RMSD 2.045208
USER: SEED 28
USER: STATUS no improvement in best 3 clusters for 5 generations
USER: GENES 22
USER: genes 0 Translation |==|  0.55867 0.48752 0.52779
USER: genes 1 Rotation |==|  0.50513 0.50546 0.56677 0.99546
USER: genes 2 Torsion [N]-CA--C-[N] |==|  0.46058
USER: genes 3 Torsion [C]-N--CA-[CB] |==|  0.23864
USER: genes 4 Torsion [N]-CA--C-[N] |==|  0.41795
USER: genes 5 Torsion [C]-N--CA-[C] |==|  0.83797
USER: genes 6 Torsion [N]-CA--CB-[CG1] |==|  0.82063
USER: genes 7 Torsion [CA]-CB--CG1-[CD1] |==|  0.55659
USER: genes 8 Torsion [N]-CA--C-[OXT] |==|  0.24341
USER: genes 9 Torsion [N]-CA--CB-[CG] |==|  0.49281
USER: genes 10 Torsion [CA]-CB--CG-[ND1] |==|  0.17771
USER: genes 11 Torsion [C]-CA--CB-[CG] |==|  0.19058
USER: genes 12 Torsion [CA]-CB--CG-[CD2] |==|  0.69682
USER: genes 13 Torsion [C]-CA--N-[C] |==|  0.77230
USER: genes 14 Torsion [N]-C--CA-[N] |==|  0.40286
USER: genes 15 Torsion [C]-CA--CB-[CG] |==|  0.14953
USER: genes 16 Torsion [CA]-CB--CG-[CD2] |==|  0.48180
USER: genes 17 Torsion [C]-CA--N-[C] |==|  0.78495
USER: genes 18 Torsion [N]-C--CA-[N] |==|  0.83658
USER: genes 19 Torsion [C]-CA--N-[H2] |==|  0.83761
USER: genes 20 Torsion [C]-CA--CB-[CG] |==|  0.24989
USER: genes 21 Torsion [CA]-CB--CG-[OD1] |==|  0.04915
ROOT
ATOM      1  CA  LEU D  11      20.190   6.566  63.344  1.00 47.89 LIG 0.18  C 
ENDROOT
BRANCH 1 2
ATOM      2  C   LEU D  11      18.829   6.077  62.864  1.00 48.14 LIG 0.24  C 
ATOM      3 O    LEU D  11      18.056   5.517  63.629  1.00 47.13 LIG-0.27  OA
ATOM      4  N   HIS D  12      18.561   6.260  61.576  1.00 49.28 LIG-0.35  N 
ATOM      5 H    HIS D  12      19.084   6.659  61.023  1.00 49.28 LIG 0.16  HD
BRANCH 4 6
ATOM      6  CA  HIS D  12      17.310   5.776  61.000  1.00 50.49 LIG 0.18  C 
BRANCH 6 7
ATOM      7  C   HIS D  12      17.467   5.419  59.524  1.00 51.38 LIG 0.24  C 
ATOM      8  N   ILE D  13      16.660   4.460  59.102  1.00 53.16 LIG-0.34  N 
ATOM      9 H    ILE D  13      16.120   4.061  59.639  1.00 53.16 LIG 0.16  HD
ATOM     10 O    HIS D  12      18.276   5.998  58.813  1.00 51.57 LIG-0.27  OA
BRANCH 8 11
ATOM     11  CA  ILE D  13      16.553   3.941  57.728  1.00 55.12 LIG 0.19  C 
BRANCH 11 12
ATOM     12  CB  ILE D  13      15.780   2.577  57.625  1.00 55.01 LIG 0.01  C 
ATOM     13  CG2 ILE D  13      15.492   2.163  56.169  1.00 56.15 LIG 0.01  C 
BRANCH 12 14
ATOM     14  CG1 ILE D  13      16.554   1.477  58.358  1.00 55.50 LIG 0.00  C 
ATOM     15  CD1 ILE D  13      16.180   0.034  57.924  1.00 55.45 LIG 0.01  C 
ENDBRANCH 12 14
ENDBRANCH 11 12
BRANCH 11 16
ATOM     16  C   ILE D  13      16.193   4.910  56.598  1.00 55.63 LIG 0.20  C 
ATOM     17 OXT  ILE D  13      17.118   5.517  56.041  1.00 55.86 LIG-0.65  OA
ATOM     18 O    ILE D  13      15.024   5.064  56.237  1.00 56.94 LIG-0.65  OA
ENDBRANCH 11 16
ENDBRANCH 8 11
ENDBRANCH 6 7
BRANCH 6 19
ATOM     19  CB  HIS D  12      16.185   6.798  61.178  1.00 50.55 LIG 0.10  C 
BRANCH 19 20
ATOM     20  CG  HIS D  12      14.891   6.385  60.553  1.00 49.61 LIG 0.05  A 
ATOM     21 ND1  HIS D  12      14.059   5.351  60.821  1.00 49.92 LIG-0.25  NA
ATOM     22  CE1 HIS D  12      13.005   5.443  59.947  1.00 49.12 LIG 0.21  A 
ATOM     23  NE2 HIS D  12      13.169   6.509  59.185  1.00 48.62 LIG-0.36  N 
ATOM     24 HE2  HIS D  12      12.630   6.777  58.571  1.00 48.62 LIG 0.17  HD
ATOM     25  CD2 HIS D  12      14.302   7.093  59.528  1.00 48.49 LIG 0.12  A 
ENDBRANCH 19 20
ENDBRANCH 6 19
ENDBRANCH 4 6
ENDBRANCH 1 2
BRANCH 1 26
ATOM     26  CB  LEU D  11      21.245   5.608  62.802  1.00 47.69 LIG 0.04  C 
BRANCH 26 27
ATOM     27  CG  LEU D  11      21.524   5.575  61.294  1.00 48.05 LIG-0.02  C 
ATOM     28  CD1 LEU D  11      23.010   5.776  61.032  1.00 46.53 LIG 0.01  C 
ATOM     29  CD2 LEU D  11      21.027   4.311  60.635  1.00 50.43 LIG 0.01  C 
ENDBRANCH 26 27
ENDBRANCH 1 26
BRANCH 1 30
ATOM     30  N   LEU D  11      20.300   6.641  64.793  1.00 47.51 LIG-0.35  N 
ATOM     31  C   LEU D  10      19.842   7.674  65.501  1.00 47.80 LIG 0.24  C 
ATOM     32 O    LEU D  10      19.215   8.623  65.008  1.00 47.07 LIG-0.27  OA
ATOM     33 H    LEU D  11      20.688   5.960  65.148  1.00 47.51 LIG 0.16  HD
BRANCH 31 34
ATOM     34  CA  LEU D  10      20.143   7.632  66.994  1.00 47.63 LIG 0.18  C 
BRANCH 34 35
ATOM     35  CB  LEU D  10      19.027   6.930  67.762  1.00 47.29 LIG 0.04  C 
BRANCH 35 36
ATOM     36  CG  LEU D  10      18.692   5.531  67.232  1.00 46.92 LIG-0.02  C 
ATOM     37  CD2 LEU D  10      17.709   4.838  68.115  1.00 45.50 LIG 0.01  C 
ATOM     38  CD1 LEU D  10      19.940   4.663  67.083  1.00 46.83 LIG 0.01  C 
ENDBRANCH 35 36
ENDBRANCH 34 35
BRANCH 34 39
ATOM     39  N   LEU D  10      20.380   8.977  67.490  1.00 47.82 LIG-0.35  N 
ATOM     40 H    LEU D  10      19.723   9.325  67.922  1.00 47.82 LIG 0.16  HD
ATOM     41  C   ASP D   9      21.540   9.583  67.269  1.00 48.63 LIG 0.25  C 
ATOM     42 O    ASP D   9      22.460   9.070  66.635  1.00 48.10 LIG-0.27  OA
BRANCH 41 43
ATOM     43  CA  ASP D   9      21.677  10.972  67.835  1.00 49.27 LIG 0.28  C 
BRANCH 43 44
ATOM     44  N   ASP D   9      20.600  11.807  67.243  1.00 49.86 LIG-0.07  N 
ATOM     45 H2   ASP D   9      20.676  11.805  66.357  1.00 49.86 LIG 0.28  HD
ATOM     46 H3   ASP D   9      19.807  11.476  67.474  1.00 49.86 LIG 0.28  HD
ATOM     47 H1   ASP D   9      20.672  12.641  67.544  1.00 49.86 LIG 0.28  HD
ENDBRANCH 43 44
BRANCH 43 48
ATOM     48  CB  ASP D   9      21.533  10.902  69.349  1.00 50.02 LIG 0.15  C 
BRANCH 48 49
ATOM     49  CG  ASP D   9      22.844  10.690  70.046  1.00 50.84 LIG 0.17  C 
ATOM     50 OD1  ASP D   9      23.891  10.925  69.420  1.00 53.44 LIG-0.65  OA
ATOM     51 OD2  ASP D   9      22.929  10.313  71.236  1.00 53.75 LIG-0.65  OA
ENDBRANCH 48 49
ENDBRANCH 43 48
ENDBRANCH 41 43
ENDBRANCH 34 39
ENDBRANCH 31 34
ENDBRANCH 1 30
TORSDOF 20
ENDMDL
MODEL 2
USER: ADFR SOLUTION from run 131
USER: SCORE 14.915396 LL:  -4.696 LR: -11.552 RR:   0.000 FEB:  -5.586
USER: RMSD 2.363517
USER: SEED 130
USER: STATUS no improvement in best 2 clusters for 5 generations
USER: GENES 22
USER: genes 0 Translation |==|  0.56399 0.50066 0.52959
USER: genes 1 Rotation |==|  0.51281 0.49107 0.48362 0.99949
USER: genes 2 Torsion [N]-CA--C-[N] |==|  0.42098
USER: genes 3 Torsion [C]-N--CA-[CB] |==|  0.49188
USER: genes 4 Torsion [N]-CA--C-[N] |==|  0.89225
USER: genes 5 Torsion [C]-N--CA-[C] |==|  0.24043
USER: genes 6 Torsion [N]-CA--CB-[CG1] |==|  0.63669
USER: genes 7 Torsion [CA]-CB--CG1-[CD1] |==|  0.53663
USER: genes 8 Torsion [N]-CA--C-[OXT] |==|  0.31262
USER: genes 9 Torsion [N]-CA--CB-[CG] |==|  0.32874
USER: genes 10 Torsion [CA]-CB--CG-[ND1] |==|  0.79438
USER: genes 11 Torsion [C]-CA--CB-[CG] |==|  0.20564
USER: genes 12 Torsion [CA]-CB--CG-[CD2] |==|  0.59632
USER: genes 13 Torsion [C]-CA--N-[C] |==|  0.81111
USER: genes 14 Torsion [N]-C--CA-[N] |==|  0.40261
USER: genes 15 Torsion [C]-CA--CB-[CG] |==|  0.16806
USER: genes 16 Torsion [CA]-CB--CG-[CD2] |==|  0.46414
USER: genes 17 Torsion [C]-CA--N-[C] |==|  0.80805
USER: genes 18 Torsion [N]-C--CA-[N] |==|  0.81101
USER: genes 19 Torsion [C]-CA--N-[H2] |==|  0.98756
USER: genes 20 Torsion [C]-CA--CB-[CG] |==|  0.26720
USER: genes 21 Torsion [CA]-CB--CG-[OD1] |==|  0.03428
ROOT
ATOM      1  CA  LEU D  11      20.350   6.960  63.398  1.00 47.89 LIG 0.18  C 
ENDROOT
BRANCH 1 2
ATOM      2  C   LEU D  11      18.933   6.959  62.840  1.00 48.14 LIG 0.24  C 
ATOM      3 O    LEU D  11      18.016   6.425  63.450  1.00 47.13 LIG-0.27  OA
ATOM      4  N   HIS D  12      18.769   7.528  61.651  1.00 49.28 LIG-0.35  N 
ATOM      5 H    HIS D  12      19.396   7.916  61.208  1.00 49.28 LIG 0.16  HD
BRANCH 4 6
ATOM      6  CA  HIS D  12      17.464   7.529  60.998  1.00 50.49 LIG 0.18  C 
BRANCH 6 7
ATOM      7  C   HIS D  12      16.948   6.111  60.762  1.00 51.38 LIG 0.24  C 
ATOM      8  N   ILE D  13      17.876   5.242  60.396  1.00 53.16 LIG-0.34  N 
ATOM      9 H    ILE D  13      18.693   5.483  60.277  1.00 53.16 LIG 0.16  HD
ATOM     10 O    HIS D  12      15.768   5.831  60.915  1.00 51.57 LIG-0.27  OA
BRANCH 8 11
ATOM     11  CA  ILE D  13      17.685   3.803  60.146  1.00 55.12 LIG 0.19  C 
BRANCH 11 12
ATOM     12  CB  ILE D  13      16.916   3.057  61.296  1.00 55.01 LIG 0.01  C 
ATOM     13  CG2 ILE D  13      15.459   2.727  60.923  1.00 56.15 LIG 0.01  C 
BRANCH 12 14
ATOM     14  CG1 ILE D  13      17.675   1.789  61.699  1.00 55.50 LIG 0.00  C 
ATOM     15  CD1 ILE D  13      16.859   0.812  62.588  1.00 55.45 LIG 0.01  C 
ENDBRANCH 12 14
ENDBRANCH 11 12
BRANCH 11 16
ATOM     16  C   ILE D  13      17.246   3.348  58.751  1.00 55.63 LIG 0.20  C 
ATOM     17 OXT  ILE D  13      18.054   2.696  58.076  1.00 55.86 LIG-0.65  OA
ATOM     18 O    ILE D  13      16.116   3.598  58.323  1.00 56.94 LIG-0.65  OA
ENDBRANCH 11 16
ENDBRANCH 8 11
ENDBRANCH 6 7
BRANCH 6 19
ATOM     19  CB  HIS D  12      17.505   8.301  59.678  1.00 50.55 LIG 0.10  C 
BRANCH 19 20
ATOM     20  CG  HIS D  12      17.182   7.466  58.480  1.00 49.61 LIG 0.05  A 
ATOM     21 ND1  HIS D  12      17.901   6.522  57.828  1.00 49.92 LIG-0.25  NA
ATOM     22  CE1 HIS D  12      17.125   6.066  56.793  1.00 49.12 LIG 0.21  A 
ATOM     23  NE2 HIS D  12      15.961   6.688  56.820  1.00 48.62 LIG-0.36  N 
ATOM     24 HE2  HIS D  12      15.308   6.558  56.276  1.00 48.62 LIG 0.17  HD
ATOM     25  CD2 HIS D  12      15.971   7.542  57.826  1.00 48.49 LIG 0.12  A 
ENDBRANCH 19 20
ENDBRANCH 6 19
ENDBRANCH 4 6
ENDBRANCH 1 2
BRANCH 1 26
ATOM     26  CB  LEU D  11      21.062   5.723  62.862  1.00 47.69 LIG 0.04  C 
BRANCH 26 27
ATOM     27  CG  LEU D  11      21.508   5.691  61.395  1.00 48.05 LIG-0.02  C 
ATOM     28  CD1 LEU D  11      22.922   6.240  61.267  1.00 46.53 LIG 0.01  C 
ATOM     29  CD2 LEU D  11      21.407   4.315  60.783  1.00 50.43 LIG 0.01  C 
ENDBRANCH 26 27
ENDBRANCH 1 26
BRANCH 1 30
ATOM     30  N   LEU D  11      20.399   6.958  64.852  1.00 47.51 LIG-0.35  N 
ATOM     31  C   LEU D  10      20.003   7.994  65.592  1.00 47.80 LIG 0.24  C 
ATOM     32 O    LEU D  10      19.487   9.019  65.122  1.00 47.07 LIG-0.27  OA
ATOM     33 H    LEU D  11      20.707   6.228  65.189  1.00 47.51 LIG 0.16  HD
BRANCH 31 34
ATOM     34  CA  LEU D  10      20.229   7.856  67.092  1.00 47.63 LIG 0.18  C 
BRANCH 34 35
ATOM     35  CB  LEU D  10      19.020   7.227  67.776  1.00 47.29 LIG 0.04  C 
BRANCH 35 36
ATOM     36  CG  LEU D  10      18.682   5.819  67.272  1.00 46.92 LIG-0.02  C 
ATOM     37  CD2 LEU D  10      17.706   5.140  68.173  1.00 45.50 LIG 0.01  C 
ATOM     38  CD1 LEU D  10      19.929   4.949  67.129  1.00 46.83 LIG 0.01  C 
ENDBRANCH 35 36
ENDBRANCH 34 35
BRANCH 34 39
ATOM     39  N   LEU D  10      20.565   9.149  67.664  1.00 47.82 LIG-0.35  N 
ATOM     40 H    LEU D  10      19.963   9.485  68.177  1.00 47.82 LIG 0.16  HD
ATOM     41  C   ASP D   9      21.726   9.728  67.386  1.00 48.63 LIG 0.25  C 
ATOM     42 O    ASP D   9      22.565   9.234  66.637  1.00 48.10 LIG-0.27  OA
BRANCH 41 43
ATOM     43  CA  ASP D   9      21.970  11.063  68.040  1.00 49.27 LIG 0.28  C 
BRANCH 43 44
ATOM     44  N   ASP D   9      21.022  12.038  67.441  1.00 49.86 LIG-0.07  N 
ATOM     45 H2   ASP D   9      20.565  11.643  66.787  1.00 49.86 LIG 0.28  HD
ATOM     46 H3   ASP D   9      20.458  12.325  68.066  1.00 49.86 LIG 0.28  HD
ATOM     47 H1   ASP D   9      21.475  12.728  67.111  1.00 49.86 LIG 0.28  HD
ENDBRANCH 43 44
BRANCH 43 48
ATOM     48  CB  ASP D   9      21.728  10.929  69.537  1.00 50.02 LIG 0.15  C 
BRANCH 48 49
ATOM     49  CG  ASP D   9      22.993  10.690  70.308  1.00 50.84 LIG 0.17  C 
ATOM     50 OD1  ASP D   9      24.079  10.857  69.729  1.00 53.44 LIG-0.65  OA
ATOM     51 OD2  ASP D   9      23.002  10.356  71.515  1.00 53.75 LIG-0.65  OA
ENDBRANCH 48 49
ENDBRANCH 43 48
ENDBRANCH 41 43
ENDBRANCH 34 39
ENDBRANCH 31 34
ENDBRANCH 1 30
TORSDOF 20
ENDMDL
MODEL 3
USER: ADFR SOLUTION from run 115
USER: SCORE 14.647767 LL:  -4.777 LR: -11.423 RR:   0.000 FEB:  -5.457
USER: RMSD 1.769198
USER: SEED 114
USER: STATUS no improvement in best 3 clusters for 5 generations
USER: GENES 22
USER: genes 0 Translation |==|  0.56367 0.48470 0.52874
USER: genes 1 Rotation |==|  0.51423 0.47769 0.52920 0.99844
USER: genes 2 Torsion [N]-CA--C-[N] |==|  0.37425
USER: genes 3 Torsion [C]-N--CA-[CB] |==|  0.42932
USER: genes 4 Torsion [N]-CA--C-[N] |==|  0.36050
USER: genes 5 Torsion [C]-N--CA-[C] |==|  0.13609
USER: genes 6 Torsion [N]-CA--CB-[CG1] |==|  0.53223
USER: genes 7 Torsion [CA]-CB--CG1-[CD1] |==|  0.49769
USER: genes 8 Torsion [N]-CA--C-[OXT] |==|  0.68939
USER: genes 9 Torsion [N]-CA--CB-[CG] |==|  0.25589
USER: genes 10 Torsion [CA]-CB--CG-[ND1] |==|  0.28733
USER: genes 11 Torsion [C]-CA--CB-[CG] |==|  0.25483
USER: genes 12 Torsion [CA]-CB--CG-[CD2] |==|  0.96310
USER: genes 13 Torsion [C]-CA--N-[C] |==|  0.80323
USER: genes 14 Torsion [N]-C--CA-[N] |==|  0.39111
USER: genes 15 Torsion [C]-CA--CB-[CG] |==|  0.16907
USER: genes 16 Torsion [CA]-CB--CG-[CD2] |==|  0.47561
USER: genes 17 Torsion [C]-CA--N-[C] |==|  0.81111
USER: genes 18 Torsion [N]-C--CA-[N] |==|  0.01595
USER: genes 19 Torsion [C]-CA--N-[H2] |==|  0.77892
USER: genes 20 Torsion [C]-CA--CB-[CG] |==|  0.66065
USER: genes 21 Torsion [CA]-CB--CG-[OD1] |==|  0.86624
ROOT
ATOM      1  CA  LEU D  11      20.340   6.481  63.372  1.00 47.89 LIG 0.18  C 
ENDROOT
BRANCH 1 2
ATOM      2  C   LEU D  11      18.981   6.228  62.733  1.00 48.14 LIG 0.24  C 
ATOM      3 O    LEU D  11      18.265   5.314  63.117  1.00 47.13 LIG-0.27  OA
ATOM      4  N   HIS D  12      18.651   7.025  61.723  1.00 49.28 LIG-0.35  N 
ATOM      5 H    HIS D  12      19.133   7.679  61.441  1.00 49.28 LIG 0.16  HD
BRANCH 4 6
ATOM      6  CA  HIS D  12      17.398   6.831  61.000  1.00 50.49 LIG 0.18  C 
BRANCH 6 7
ATOM      7  C   HIS D  12      17.516   5.735  59.944  1.00 51.38 LIG 0.24  C 
ATOM      8  N   ILE D  13      16.561   4.821  59.990  1.00 53.16 LIG-0.34  N 
ATOM      9 H    ILE D  13      15.949   4.844  60.594  1.00 53.16 LIG 0.16  HD
ATOM     10 O    HIS D  12      18.427   5.734  59.128  1.00 51.57 LIG-0.27  OA
BRANCH 8 11
ATOM     11  CA  ILE D  13      16.389   3.680  59.075  1.00 55.12 LIG 0.19  C 
BRANCH 11 12
ATOM     12  CB  ILE D  13      15.552   4.020  57.789  1.00 55.01 LIG 0.01  C 
ATOM     13  CG2 ILE D  13      16.277   5.001  56.848  1.00 56.15 LIG 0.01  C 
BRANCH 12 14
ATOM     14  CG1 ILE D  13      15.180   2.732  57.048  1.00 55.50 LIG 0.00  C 
ATOM     15  CD1 ILE D  13      14.331   2.954  55.767  1.00 55.45 LIG 0.01  C 
ENDBRANCH 12 14
ENDBRANCH 11 12
BRANCH 11 16
ATOM     16  C   ILE D  13      17.595   2.786  58.775  1.00 55.63 LIG 0.20  C 
ATOM     17 OXT  ILE D  13      18.064   2.815  57.628  1.00 55.86 LIG-0.65  OA
ATOM     18 O    ILE D  13      18.101   2.080  59.650  1.00 56.94 LIG-0.65  OA
ENDBRANCH 11 16
ENDBRANCH 8 11
ENDBRANCH 6 7
BRANCH 6 19
ATOM     19  CB  HIS D  12      16.921   8.134  60.356  1.00 50.55 LIG 0.10  C 
BRANCH 19 20
ATOM     20  CG  HIS D  12      17.394   8.320  58.949  1.00 49.61 LIG 0.05  A 
ATOM     21 ND1  HIS D  12      16.753   8.177  57.765  1.00 49.92 LIG-0.25  NA
ATOM     22  CE1 HIS D  12      17.657   8.477  56.777  1.00 49.12 LIG 0.21  A 
ATOM     23  NE2 HIS D  12      18.806   8.816  57.333  1.00 48.62 LIG-0.36  N 
ATOM     24 HE2  HIS D  12      19.517   9.055  56.913  1.00 48.62 LIG 0.17  HD
ATOM     25  CD2 HIS D  12      18.675   8.725  58.644  1.00 48.49 LIG 0.12  A 
ENDBRANCH 19 20
ENDBRANCH 6 19
ENDBRANCH 4 6
ENDBRANCH 1 2
BRANCH 1 26
ATOM     26  CB  LEU D  11      21.293   5.395  62.885  1.00 47.69 LIG 0.04  C 
BRANCH 26 27
ATOM     27  CG  LEU D  11      22.137   5.648  61.629  1.00 48.05 LIG-0.02  C 
ATOM     28  CD1 LEU D  11      22.157   4.403  60.753  1.00 46.53 LIG 0.01  C 
ATOM     29  CD2 LEU D  11      21.672   6.851  60.845  1.00 50.43 LIG 0.01  C 
ENDBRANCH 26 27
ENDBRANCH 1 26
BRANCH 1 30
ATOM     30  N   LEU D  11      20.305   6.479  64.827  1.00 47.51 LIG-0.35  N 
ATOM     31  C   LEU D  10      19.733   7.451  65.539  1.00 47.80 LIG 0.24  C 
ATOM     32 O    LEU D  10      19.117   8.401  65.036  1.00 47.07 LIG-0.27  OA
ATOM     33 H    LEU D  11      20.685   5.795  65.183  1.00 47.51 LIG 0.16  HD
BRANCH 31 34
ATOM     34  CA  LEU D  10      19.889   7.337  67.050  1.00 47.63 LIG 0.18  C 
BRANCH 34 35
ATOM     35  CB  LEU D  10      18.684   6.641  67.677  1.00 47.29 LIG 0.04  C 
BRANCH 35 36
ATOM     36  CG  LEU D  10      18.464   5.209  67.176  1.00 46.92 LIG-0.02  C 
ATOM     37  CD2 LEU D  10      17.411   4.513  67.971  1.00 45.50 LIG 0.01  C 
ATOM     38  CD1 LEU D  10      19.751   4.387  67.211  1.00 46.83 LIG 0.01  C 
ENDBRANCH 35 36
ENDBRANCH 34 35
BRANCH 34 39
ATOM     39  N   LEU D  10      20.115   8.652  67.625  1.00 47.82 LIG-0.35  N 
ATOM     40 H    LEU D  10      19.474   8.949  68.116  1.00 47.82 LIG 0.16  HD
ATOM     41  C   ASP D   9      21.244   9.308  67.385  1.00 48.63 LIG 0.25  C 
ATOM     42 O    ASP D   9      22.141   8.869  66.669  1.00 48.10 LIG-0.27  OA
BRANCH 41 43
ATOM     43  CA  ASP D   9      21.374  10.658  68.039  1.00 49.27 LIG 0.28  C 
BRANCH 43 44
ATOM     44  N   ASP D   9      20.199  10.842  68.930  1.00 49.86 LIG-0.07  N 
ATOM     45 H2   ASP D   9      19.494  11.084  68.444  1.00 49.86 LIG 0.28  HD
ATOM     46 H3   ASP D   9      20.022  10.078  69.349  1.00 49.86 LIG 0.28  HD
ATOM     47 H1   ASP D   9      20.377  11.475  69.530  1.00 49.86 LIG 0.28  HD
ENDBRANCH 43 44
BRANCH 43 48
ATOM     48  CB  ASP D   9      22.667  10.693  68.843  1.00 50.02 LIG 0.15  C 
BRANCH 48 49
ATOM     49  CG  ASP D   9      22.439  10.999  70.294  1.00 50.84 LIG 0.17  C 
ATOM     50 OD1  ASP D   9      21.706  11.959  70.587  1.00 53.44 LIG-0.65  OA
ATOM     51 OD2  ASP D   9      22.930  10.315  71.219  1.00 53.75 LIG-0.65  OA
ENDBRANCH 48 49
ENDBRANCH 43 48
ENDBRANCH 41 43
ENDBRANCH 34 39
ENDBRANCH 31 34
ENDBRANCH 1 30
TORSDOF 20
ENDMDL
MODEL 4
USER: ADFR SOLUTION from run 91
USER: SCORE 14.600366 LL:  -4.145 LR: -11.160 RR:   0.000 FEB:  -5.194
USER: RMSD 2.134866
USER: SEED 90
USER: STATUS no improvement in best 3 clusters for 5 generations
USER: GENES 22
USER: genes 0 Translation |==|  0.56661 0.46310 0.52084
USER: genes 1 Rotation |==|  0.47713 0.46047 0.55018 0.99537
USER: genes 2 Torsion [N]-CA--C-[N] |==|  0.39017
USER: genes 3 Torsion [C]-N--CA-[CB] |==|  0.50000
USER: genes 4 Torsion [N]-CA--C-[N] |==|  0.39389
USER: genes 5 Torsion [C]-N--CA-[C] |==|  0.13651
USER: genes 6 Torsion [N]-CA--CB-[CG1] |==|  0.43122
USER: genes 7 Torsion [CA]-CB--CG1-[CD1] |==|  0.48313
USER: genes 8 Torsion [N]-CA--C-[OXT] |==|  0.31579
USER: genes 9 Torsion [N]-CA--CB-[CG] |==|  0.51825
USER: genes 10 Torsion [CA]-CB--CG-[ND1] |==|  0.01850
USER: genes 11 Torsion [C]-CA--CB-[CG] |==|  0.26597
USER: genes 12 Torsion [CA]-CB--CG-[CD2] |==|  0.03979
USER: genes 13 Torsion [C]-CA--N-[C] |==|  0.81768
USER: genes 14 Torsion [N]-C--CA-[N] |==|  0.37426
USER: genes 15 Torsion [C]-CA--CB-[CG] |==|  0.19101
USER: genes 16 Torsion [CA]-CB--CG-[CD2] |==|  0.45313
USER: genes 17 Torsion [C]-CA--N-[C] |==|  0.79287
USER: genes 18 Torsion [N]-C--CA-[N] |==|  0.87459
USER: genes 19 Torsion [C]-CA--N-[H2] |==|  0.98557
USER: genes 20 Torsion [C]-CA--CB-[CG] |==|  0.28943
USER: genes 21 Torsion [CA]-CB--CG-[OD1] |==|  0.04127
ROOT
ATOM      1  CA  LEU D  11      20.428   5.833  63.135  1.00 47.89 LIG 0.18  C 
ENDROOT
BRANCH 1 2
ATOM      2  C   LEU D  11      19.150   5.381  62.441  1.00 48.14 LIG 0.24  C 
ATOM      3 O    LEU D  11      18.414   4.550  62.956  1.00 47.13 LIG-0.27  OA
ATOM      4  N   HIS D  12      18.913   5.909  61.246  1.00 49.28 LIG-0.35  N 
ATOM      5 H    HIS D  12      19.410   6.501  60.869  1.00 49.28 LIG 0.16  HD
BRANCH 4 6
ATOM      6  CA  HIS D  12      17.748   5.500  60.469  1.00 50.49 LIG 0.18  C 
BRANCH 6 7
ATOM      7  C   HIS D  12      17.723   3.991  60.236  1.00 51.38 LIG 0.24  C 
ATOM      8  N   ILE D  13      16.519   3.445  60.296  1.00 53.16 LIG-0.34  N 
ATOM      9 H    ILE D  13      15.824   3.915  60.483  1.00 53.16 LIG 0.16  HD
ATOM     10 O    HIS D  12      18.748   3.367  60.005  1.00 51.57 LIG-0.27  OA
BRANCH 8 11
ATOM     11  CA  ILE D  13      16.182   2.030  60.067  1.00 55.12 LIG 0.19  C 
BRANCH 11 12
ATOM     12  CB  ILE D  13      15.913   1.679  58.559  1.00 55.01 LIG 0.01  C 
ATOM     13  CG2 ILE D  13      16.732   2.550  57.589  1.00 56.15 LIG 0.01  C 
BRANCH 12 14
ATOM     14  CG1 ILE D  13      16.179   0.191  58.310  1.00 55.50 LIG 0.00  C 
ATOM     15  CD1 ILE D  13      15.801  -0.296  56.885  1.00 55.45 LIG 0.01  C 
ENDBRANCH 12 14
ENDBRANCH 11 12
BRANCH 11 16
ATOM     16  C   ILE D  13      16.996   0.951  60.788  1.00 55.63 LIG 0.20  C 
ATOM     17 OXT  ILE D  13      16.415   0.261  61.637  1.00 55.86 LIG-0.65  OA
ATOM     18 O    ILE D  13      18.183   0.757  60.515  1.00 56.94 LIG-0.65  OA
ENDBRANCH 11 16
ENDBRANCH 8 11
ENDBRANCH 6 7
BRANCH 6 19
ATOM     19  CB  HIS D  12      17.685   6.241  59.132  1.00 50.55 LIG 0.10  C 
BRANCH 19 20
ATOM     20  CG  HIS D  12      16.432   5.981  58.357  1.00 49.61 LIG 0.05  A 
ATOM     21 ND1  HIS D  12      15.304   5.306  58.681  1.00 49.92 LIG-0.25  NA
ATOM     22  CE1 HIS D  12      14.463   5.381  57.599  1.00 49.12 LIG 0.21  A 
ATOM     23  NE2 HIS D  12      15.042   6.096  56.653  1.00 48.62 LIG-0.36  N 
ATOM     24 HE2  HIS D  12      14.700   6.288  55.887  1.00 48.62 LIG 0.17  HD
ATOM     25  CD2 HIS D  12      16.233   6.467  57.082  1.00 48.49 LIG 0.12  A 
ENDBRANCH 19 20
ENDBRANCH 6 19
ENDBRANCH 4 6
ENDBRANCH 1 2
BRANCH 1 26
ATOM     26  CB  LEU D  11      21.493   4.770  62.888  1.00 47.69 LIG 0.04  C 
BRANCH 26 27
ATOM     27  CG  LEU D  11      22.481   4.954  61.730  1.00 48.05 LIG-0.02  C 
ATOM     28  CD1 LEU D  11      22.194   3.940  60.631  1.00 46.53 LIG 0.01  C 
ATOM     29  CD2 LEU D  11      22.480   6.360  61.179  1.00 50.43 LIG 0.01  C 
ENDBRANCH 26 27
ENDBRANCH 1 26
BRANCH 1 30
ATOM     30  N   LEU D  11      20.269   6.037  64.567  1.00 47.51 LIG-0.35  N 
ATOM     31  C   LEU D  10      19.491   6.991  65.081  1.00 47.80 LIG 0.24  C 
ATOM     32 O    LEU D  10      18.776   7.739  64.398  1.00 47.07 LIG-0.27  OA
ATOM     33 H    LEU D  11      20.721   5.487  65.050  1.00 47.51 LIG 0.16  HD
BRANCH 31 34
ATOM     34  CA  LEU D  10      19.532   7.127  66.597  1.00 47.63 LIG 0.18  C 
BRANCH 34 35
ATOM     35  CB  LEU D  10      18.321   6.460  67.243  1.00 47.29 LIG 0.04  C 
BRANCH 35 36
ATOM     36  CG  LEU D  10      18.320   4.931  67.130  1.00 46.92 LIG-0.02  C 
ATOM     37  CD2 LEU D  10      17.365   4.317  68.099  1.00 45.50 LIG 0.01  C 
ATOM     38  CD1 LEU D  10      19.711   4.341  67.346  1.00 46.83 LIG 0.01  C 
ENDBRANCH 35 36
ENDBRANCH 34 35
BRANCH 34 39
ATOM     39  N   LEU D  10      19.641   8.528  66.967  1.00 47.82 LIG-0.35  N 
ATOM     40 H    LEU D  10      18.919   8.878  67.276  1.00 47.82 LIG 0.16  HD
ATOM     41  C   ASP D   9      20.789   9.176  66.822  1.00 48.63 LIG 0.25  C 
ATOM     42 O    ASP D   9      21.805   8.657  66.364  1.00 48.10 LIG-0.27  OA
BRANCH 41 43
ATOM     43  CA  ASP D   9      20.789  10.622  67.244  1.00 49.27 LIG 0.28  C 
BRANCH 43 44
ATOM     44  N   ASP D   9      19.557  11.249  66.700  1.00 49.86 LIG-0.07  N 
ATOM     45 H2   ASP D   9      19.128  10.663  66.185  1.00 49.86 LIG 0.28  HD
ATOM     46 H3   ASP D   9      19.028  11.496  67.371  1.00 49.86 LIG 0.28  HD
ATOM     47 H1   ASP D   9      19.775  11.964  66.216  1.00 49.86 LIG 0.28  HD
ENDBRANCH 43 44
BRANCH 43 48
ATOM     48  CB  ASP D   9      20.799  10.691  68.765  1.00 50.02 LIG 0.15  C 
BRANCH 48 49
ATOM     49  CG  ASP D   9      22.144  11.059  69.319  1.00 50.84 LIG 0.17  C 
ATOM     50 OD1  ASP D   9      22.993  11.532  68.544  1.00 53.44 LIG-0.65  OA
ATOM     51 OD2  ASP D   9      22.439  10.935  70.529  1.00 53.75 LIG-0.65  OA
ENDBRANCH 48 49
ENDBRANCH 43 48
ENDBRANCH 41 43
ENDBRANCH 34 39
ENDBRANCH 31 34
ENDBRANCH 1 30
TORSDOF 20
ENDMDL
MODEL 5
USER: ADFR SOLUTION from run 156
USER: SCORE 13.178612 LL:  -3.995 LR: -10.911 RR:   0.000 FEB:  -4.945
USER: RMSD 1.678501
USER: SEED 155
USER: STATUS 1 or 2 clusters left
USER: GENES 22
USER: genes 0 Translation |==|  0.56179 0.48559 0.52982
USER: genes 1 Rotation |==|  0.50469 0.48602 0.51340 0.99960
USER: genes 2 Torsion [N]-CA--C-[N] |==|  0.39433
USER: genes 3 Torsion [C]-N--CA-[CB] |==|  0.37182
USER: genes 4 Torsion [N]-CA--C-[N] |==|  0.34591
USER: genes 5 Torsion [C]-N--CA-[C] |==|  0.17946
USER: genes 6 Torsion [N]-CA--CB-[CG1] |==|  0.55680
USER: genes 7 Torsion [CA]-CB--CG1-[CD1] |==|  0.31368
USER: genes 8 Torsion [N]-CA--C-[OXT] |==|  0.14344
USER: genes 9 Torsion [N]-CA--CB-[CG] |==|  0.74646
USER: genes 10 Torsion [CA]-CB--CG-[ND1] |==|  0.05069
USER: genes 11 Torsion [C]-CA--CB-[CG] |==|  0.28639
USER: genes 12 Torsion [CA]-CB--CG-[CD2] |==|  0.91056
USER: genes 13 Torsion [C]-CA--N-[C] |==|  0.81711
USER: genes 14 Torsion [N]-C--CA-[N] |==|  0.39265
USER: genes 15 Torsion [C]-CA--CB-[CG] |==|  0.15492
USER: genes 16 Torsion [CA]-CB--CG-[CD2] |==|  0.47587
USER: genes 17 Torsion [C]-CA--N-[C] |==|  0.80194
USER: genes 18 Torsion [N]-C--CA-[N] |==|  0.82689
USER: genes 19 Torsion [C]-CA--N-[H2] |==|  0.83811
USER: genes 20 Torsion [C]-CA--CB-[CG] |==|  0.30501
USER: genes 21 Torsion [CA]-CB--CG-[OD1] |==|  0.54679
ROOT
ATOM      1  CA  LEU D  11      20.284   6.508  63.404  1.00 47.89 LIG 0.18  C 
ENDROOT
BRANCH 1 2
ATOM      2  C   LEU D  11      18.891   6.320  62.819  1.00 48.14 LIG 0.24  C 
ATOM      3 O    LEU D  11      18.084   5.562  63.341  1.00 47.13 LIG-0.27  OA
ATOM      4  N   HIS D  12      18.629   6.990  61.702  1.00 49.28 LIG-0.35  N 
ATOM      5 H    HIS D  12      19.175   7.534  61.322  1.00 49.28 LIG 0.16  HD
BRANCH 4 6
ATOM      6  CA  HIS D  12      17.345   6.835  61.024  1.00 50.49 LIG 0.18  C 
BRANCH 6 7
ATOM      7  C   HIS D  12      17.456   5.932  59.798  1.00 51.38 LIG 0.24  C 
ATOM      8  N   ILE D  13      16.628   4.901  59.798  1.00 53.16 LIG-0.34  N 
ATOM      9 H    ILE D  13      16.099   4.752  60.460  1.00 53.16 LIG 0.16  HD
ATOM     10 O    HIS D  12      18.250   6.175  58.901  1.00 51.57 LIG-0.27  OA
BRANCH 8 11
ATOM     11  CA  ILE D  13      16.476   3.894  58.735  1.00 55.12 LIG 0.19  C 
BRANCH 11 12
ATOM     12  CB  ILE D  13      15.770   4.440  57.441  1.00 55.01 LIG 0.01  C 
ATOM     13  CG2 ILE D  13      16.699   5.314  56.578  1.00 56.15 LIG 0.01  C 
BRANCH 12 14
ATOM     14  CG1 ILE D  13      15.202   3.277  56.622  1.00 55.50 LIG 0.00  C 
ATOM     15  CD1 ILE D  13      13.651   3.238  56.557  1.00 55.45 LIG 0.01  C 
ENDBRANCH 12 14
ENDBRANCH 11 12
BRANCH 11 16
ATOM     16  C   ILE D  13      17.657   2.971  58.417  1.00 55.63 LIG 0.20  C 
ATOM     17 OXT  ILE D  13      18.183   2.362  59.359  1.00 55.86 LIG-0.65  OA
ATOM     18 O    ILE D  13      18.055   2.819  57.260  1.00 56.94 LIG-0.65  OA
ENDBRANCH 11 16
ENDBRANCH 8 11
ENDBRANCH 6 7
BRANCH 6 19
ATOM     19  CB  HIS D  12      16.761   8.193  60.628  1.00 50.55 LIG 0.10  C 
BRANCH 19 20
ATOM     20  CG  HIS D  12      15.861   8.788  61.664  1.00 49.61 LIG 0.05  A 
ATOM     21 ND1  HIS D  12      15.721   8.524  62.984  1.00 49.92 LIG-0.25  NA
ATOM     22  CE1 HIS D  12      14.752   9.368  63.465  1.00 49.12 LIG 0.21  A 
ATOM     23  NE2 HIS D  12      14.329  10.141  62.483  1.00 48.62 LIG-0.36  N 
ATOM     24 HE2  HIS D  12      13.732  10.757  62.548  1.00 48.62 LIG 0.17  HD
ATOM     25  CD2 HIS D  12      14.979   9.809  61.383  1.00 48.49 LIG 0.12  A 
ENDBRANCH 19 20
ENDBRANCH 6 19
ENDBRANCH 4 6
ENDBRANCH 1 2
BRANCH 1 26
ATOM     26  CB  LEU D  11      21.149   5.346  62.929  1.00 47.69 LIG 0.04  C 
BRANCH 26 27
ATOM     27  CG  LEU D  11      22.159   5.578  61.798  1.00 48.05 LIG-0.02  C 
ATOM     28  CD1 LEU D  11      22.478   4.261  61.104  1.00 46.53 LIG 0.01  C 
ATOM     29  CD2 LEU D  11      21.694   6.614  60.803  1.00 50.43 LIG 0.01  C 
ENDBRANCH 26 27
ENDBRANCH 1 26
BRANCH 1 30
ATOM     30  N   LEU D  11      20.298   6.561  64.859  1.00 47.51 LIG-0.35  N 
ATOM     31  C   LEU D  10      19.728   7.547  65.553  1.00 47.80 LIG 0.24  C 
ATOM     32 O    LEU D  10      19.072   8.463  65.037  1.00 47.07 LIG-0.27  OA
ATOM     33 H    LEU D  11      20.707   5.899  65.227  1.00 47.51 LIG 0.16  HD
BRANCH 31 34
ATOM     34  CA  LEU D  10      19.937   7.494  67.061  1.00 47.63 LIG 0.18  C 
BRANCH 34 35
ATOM     35  CB  LEU D  10      18.779   6.784  67.754  1.00 47.29 LIG 0.04  C 
BRANCH 35 36
ATOM     36  CG  LEU D  10      18.512   5.370  67.226  1.00 46.92 LIG-0.02  C 
ATOM     37  CD2 LEU D  10      17.514   4.654  68.074  1.00 45.50 LIG 0.01  C 
ATOM     38  CD1 LEU D  10      19.791   4.541  67.140  1.00 46.83 LIG 0.01  C 
ENDBRANCH 35 36
ENDBRANCH 34 35
BRANCH 34 39
ATOM     39  N   LEU D  10      20.139   8.836  67.580  1.00 47.82 LIG-0.35  N 
ATOM     40 H    LEU D  10      19.486   9.147  68.045  1.00 47.82 LIG 0.16  HD
ATOM     41  C   ASP D   9      21.265   9.493  67.332  1.00 48.63 LIG 0.25  C 
ATOM     42 O    ASP D   9      22.180   9.033  66.653  1.00 48.10 LIG-0.27  OA
BRANCH 41 43
ATOM     43  CA  ASP D   9      21.369  10.873  67.926  1.00 49.27 LIG 0.28  C 
BRANCH 43 44
ATOM     44  N   ASP D   9      20.289  11.702  67.330  1.00 49.86 LIG-0.07  N 
ATOM     45 H2   ASP D   9      20.379  11.715  66.445  1.00 49.86 LIG 0.28  HD
ATOM     46 H3   ASP D   9      19.497  11.355  67.542  1.00 49.86 LIG 0.28  HD
ATOM     47 H1   ASP D   9      20.343  12.532  67.646  1.00 49.86 LIG 0.28  HD
ENDBRANCH 43 44
BRANCH 43 48
ATOM     48  CB  ASP D   9      21.198  10.773  69.435  1.00 50.02 LIG 0.15  C 
BRANCH 48 49
ATOM     49  CG  ASP D   9      22.471  11.044  70.181  1.00 50.84 LIG 0.17  C 
ATOM     50 OD1  ASP D   9      22.546  10.689  71.370  1.00 53.44 LIG-0.65  OA
ATOM     51 OD2  ASP D   9      23.467  11.588  69.654  1.00 53.75 LIG-0.65  OA
ENDBRANCH 48 49
ENDBRANCH 43 48
ENDBRANCH 41 43
ENDBRANCH 34 39
ENDBRANCH 31 34
ENDBRANCH 1 30
TORSDOF 20
ENDMDL
MODEL 6
USER: ADFR SOLUTION from run 29
USER: SCORE 13.830365 LL:  -4.396 LR: -10.449 RR:   0.000 FEB:  -4.483
USER: RMSD 2.073607
USER: SEED 28
USER: STATUS no improvement in best 3 clusters for 5 generations
USER: GENES 22
USER: genes 0 Translation |==|  0.55977 0.48815 0.52896
USER: genes 1 Rotation |==|  0.50033 0.49944 0.53581 0.99872
USER: genes 2 Torsion [N]-CA--C-[N] |==|  0.45555
USER: genes 3 Torsion [C]-N--CA-[CB] |==|  0.19934
USER: genes 4 Torsion [N]-CA--C-[N] |==|  0.49883
USER: genes 5 Torsion [C]-N--CA-[C] |==|  0.25885
USER: genes 6 Torsion [N]-CA--CB-[CG1] |==|  0.64989
USER: genes 7 Torsion [CA]-CB--CG1-[CD1] |==|  0.56967
USER: genes 8 Torsion [N]-CA--C-[OXT] |==|  0.39439
USER: genes 9 Torsion [N]-CA--CB-[CG] |==|  0.25939
USER: genes 10 Torsion [CA]-CB--CG-[ND1] |==|  0.82576
USER: genes 11 Torsion [C]-CA--CB-[CG] |==|  0.20273
USER: genes 12 Torsion [CA]-CB--CG-[CD2] |==|  0.70206
USER: genes 13 Torsion [C]-CA--N-[C] |==|  0.78878
USER: genes 14 Torsion [N]-C--CA-[N] |==|  0.41266
USER: genes 15 Torsion [C]-CA--CB-[CG] |==|  0.14181
USER: genes 16 Torsion [CA]-CB--CG-[CD2] |==|  0.49237
USER: genes 17 Torsion [C]-CA--N-[C] |==|  0.77478
USER: genes 18 Torsion [N]-C--CA-[N] |==|  0.83783
USER: genes 19 Torsion [C]-CA--N-[H2] |==|  0.83767
USER: genes 20 Torsion [C]-CA--CB-[CG] |==|  0.25352
USER: genes 21 Torsion [CA]-CB--CG-[OD1] |==|  0.04725
ROOT
ATOM      1  CA  LEU D  11      20.223   6.585  63.379  1.00 47.89 LIG 0.18  C 
ENDROOT
BRANCH 1 2
ATOM      2  C   LEU D  11      18.824   6.260  62.871  1.00 48.14 LIG 0.24  C 
ATOM      3 O    LEU D  11      17.979   5.784  63.617  1.00 47.13 LIG-0.27  OA
ATOM      4  N   HIS D  12      18.600   6.486  61.582  1.00 49.28 LIG-0.35  N 
ATOM      5 H    HIS D  12      19.175   6.828  61.041  1.00 49.28 LIG 0.16  HD
BRANCH 4 6
ATOM      6  CA  HIS D  12      17.314   6.154  60.980  1.00 50.49 LIG 0.18  C 
BRANCH 6 7
ATOM      7  C   HIS D  12      17.389   6.137  59.454  1.00 51.38 LIG 0.24  C 
ATOM      8  N   ILE D  13      16.251   5.832  58.852  1.00 53.16 LIG-0.34  N 
ATOM      9 H    ILE D  13      15.546   5.634  59.302  1.00 53.16 LIG 0.16  HD
ATOM     10 O    HIS D  12      18.429   6.396  58.867  1.00 51.57 LIG-0.27  OA
BRANCH 8 11
ATOM     11  CA  ILE D  13      16.010   5.784  57.400  1.00 55.12 LIG 0.19  C 
BRANCH 11 12
ATOM     12  CB  ILE D  13      16.644   6.988  56.612  1.00 55.01 LIG 0.01  C 
ATOM     13  CG2 ILE D  13      17.840   6.565  55.739  1.00 56.15 LIG 0.01  C 
BRANCH 12 14
ATOM     14  CG1 ILE D  13      15.574   7.685  55.766  1.00 55.50 LIG 0.00  C 
ATOM     15  CD1 ILE D  13      16.130   8.441  54.530  1.00 55.45 LIG 0.01  C 
ENDBRANCH 12 14
ENDBRANCH 11 12
BRANCH 11 16
ATOM     16  C   ILE D  13      16.172   4.449  56.667  1.00 55.63 LIG 0.20  C 
ATOM     17 OXT  ILE D  13      15.371   4.188  55.759  1.00 55.86 LIG-0.65  OA
ATOM     18 O    ILE D  13      17.085   3.671  56.953  1.00 56.94 LIG-0.65  OA
ENDBRANCH 11 16
ENDBRANCH 8 11
ENDBRANCH 6 7
BRANCH 6 19
ATOM     19  CB  HIS D  12      16.219   7.119  61.442  1.00 50.55 LIG 0.10  C 
BRANCH 19 20
ATOM     20  CG  HIS D  12      16.015   8.283  60.525  1.00 49.61 LIG 0.05  A 
ATOM     21 ND1  HIS D  12      16.843   9.291  60.163  1.00 49.92 LIG-0.25  NA
ATOM     22  CE1 HIS D  12      16.148  10.090  59.290  1.00 49.12 LIG 0.21  A 
ATOM     23  NE2 HIS D  12      14.945   9.579  59.102  1.00 48.62 LIG-0.36  N 
ATOM     24 HE2  HIS D  12      14.336   9.901  58.587  1.00 48.62 LIG 0.17  HD
ATOM     25  CD2 HIS D  12      14.837   8.490  59.841  1.00 48.49 LIG 0.12  A 
ENDBRANCH 19 20
ENDBRANCH 6 19
ENDBRANCH 4 6
ENDBRANCH 1 2
BRANCH 1 26
ATOM     26  CB  LEU D  11      21.164   5.493  62.880  1.00 47.69 LIG 0.04  C 
BRANCH 26 27
ATOM     27  CG  LEU D  11      21.553   5.460  61.397  1.00 48.05 LIG-0.02  C 
ATOM     28  CD1 LEU D  11      23.066   5.394  61.254  1.00 46.53 LIG 0.01  C 
ATOM     29  CD2 LEU D  11      20.890   4.330  60.645  1.00 50.43 LIG 0.01  C 
ENDBRANCH 26 27
ENDBRANCH 1 26
BRANCH 1 30
ATOM     30  N   LEU D  11      20.307   6.673  64.829  1.00 47.51 LIG-0.35  N 
ATOM     31  C   LEU D  10      19.857   7.723  65.518  1.00 47.80 LIG 0.24  C 
ATOM     32 O    LEU D  10      19.261   8.680  65.003  1.00 47.07 LIG-0.27  OA
ATOM     33 H    LEU D  11      20.672   5.988  65.199  1.00 47.51 LIG 0.16  HD
BRANCH 31 34
ATOM     34  CA  LEU D  10      20.128   7.690  67.016  1.00 47.63 LIG 0.18  C 
BRANCH 34 35
ATOM     35  CB  LEU D  10      19.024   6.945  67.760  1.00 47.29 LIG 0.04  C 
BRANCH 35 36
ATOM     36  CG  LEU D  10      18.709   5.561  67.180  1.00 46.92 LIG-0.02  C 
ATOM     37  CD2 LEU D  10      17.671   4.858  67.989  1.00 45.50 LIG 0.01  C 
ATOM     38  CD1 LEU D  10      19.956   4.684  67.084  1.00 46.83 LIG 0.01  C 
ENDBRANCH 35 36
ENDBRANCH 34 35
BRANCH 34 39
ATOM     39  N   LEU D  10      20.302   9.043  67.518  1.00 47.82 LIG-0.35  N 
ATOM     40 H    LEU D  10      19.606   9.383  67.893  1.00 47.82 LIG 0.16  HD
ATOM     41  C   ASP D   9      21.465   9.667  67.386  1.00 48.63 LIG 0.25  C 
ATOM     42 O    ASP D   9      22.442   9.166  66.833  1.00 48.10 LIG-0.27  OA
BRANCH 41 43
ATOM     43  CA  ASP D   9      21.534  11.062  67.949  1.00 49.27 LIG 0.28  C 
BRANCH 43 44
ATOM     44  N   ASP D   9      20.486  11.872  67.274  1.00 49.86 LIG-0.07  N 
ATOM     45 H2   ASP D   9      20.627  11.865  66.395  1.00 49.86 LIG 0.28  HD
ATOM     46 H3   ASP D   9      19.685  11.526  67.449  1.00 49.86 LIG 0.28  HD
ATOM     47 H1   ASP D   9      20.520  12.709  67.572  1.00 49.86 LIG 0.28  HD
ENDBRANCH 43 44
BRANCH 43 48
ATOM     48  CB  ASP D   9      21.280  11.000  69.449  1.00 50.02 LIG 0.15  C 
BRANCH 48 49
ATOM     49  CG  ASP D   9      22.544  10.850  70.243  1.00 50.84 LIG 0.17  C 
ATOM     50 OD1  ASP D   9      23.625  11.112  69.689  1.00 53.44 LIG-0.65  OA
ATOM     51 OD2  ASP D   9      22.556  10.499  71.445  1.00 53.75 LIG-0.65  OA
ENDBRANCH 48 49
ENDBRANCH 43 48
ENDBRANCH 41 43
ENDBRANCH 34 39
ENDBRANCH 31 34
ENDBRANCH 1 30
TORSDOF 20
ENDMDL
MODEL 7
USER: ADFR SOLUTION from run 137
USER: SCORE 13.813728 LL:  -5.074 LR: -10.171 RR:   0.000 FEB:  -4.205
USER: RMSD 2.777561
USER: SEED 136
USER: STATUS no improvement in best 2 clusters for 5 generations
USER: GENES 22
USER: genes 0 Translation |==|  0.56663 0.49137 0.52644
USER: genes 1 Rotation |==|  0.51189 0.47171 0.56185 0.99521
USER: genes 2 Torsion [N]-CA--C-[N] |==|  0.35143
USER: genes 3 Torsion [C]-N--CA-[CB] |==|  0.46111
USER: genes 4 Torsion [N]-CA--C-[N] |==|  0.28105
USER: genes 5 Torsion [C]-N--CA-[C] |==|  0.90310
USER: genes 6 Torsion [N]-CA--CB-[CG1] |==|  0.83910
USER: genes 7 Torsion [CA]-CB--CG1-[CD1] |==|  0.49368
USER: genes 8 Torsion [N]-CA--C-[OXT] |==|  0.83086
USER: genes 9 Torsion [N]-CA--CB-[CG] |==|  0.88756
USER: genes 10 Torsion [CA]-CB--CG-[ND1] |==|  0.14611
USER: genes 11 Torsion [C]-CA--CB-[CG] |==|  0.20225
USER: genes 12 Torsion [CA]-CB--CG-[CD2] |==|  0.05086
USER: genes 13 Torsion [C]-CA--N-[C] |==|  0.83793
USER: genes 14 Torsion [N]-C--CA-[N] |==|  0.34589
USER: genes 15 Torsion [C]-CA--CB-[CG] |==|  0.16413
USER: genes 16 Torsion [CA]-CB--CG-[CD2] |==|  0.45853
USER: genes 17 Torsion [C]-CA--N-[C] |==|  0.81718
USER: genes 18 Torsion [N]-C--CA-[N] |==|  0.82544
USER: genes 19 Torsion [C]-CA--N-[H2] |==|  0.70299
USER: genes 20 Torsion [C]-CA--CB-[CG] |==|  0.71990
USER: genes 21 Torsion [CA]-CB--CG-[OD1] |==|  0.84367
ROOT
ATOM      1  CA  LEU D  11      20.429   6.681  63.303  1.00 47.89 LIG 0.18  C 
ENDROOT
BRANCH 1 2
ATOM      2  C   LEU D  11      19.134   6.247  62.630  1.00 48.14 LIG 0.24  C 
ATOM      3 O    LEU D  11      18.609   5.176  62.906  1.00 47.13 LIG-0.27  OA
ATOM      4  N   HIS D  12      18.643   7.073  61.713  1.00 49.28 LIG-0.35  N 
ATOM      5 H    HIS D  12      18.989   7.834  61.510  1.00 49.28 LIG 0.16  HD
BRANCH 4 6
ATOM      6  CA  HIS D  12      17.439   6.725  60.965  1.00 50.49 LIG 0.18  C 
BRANCH 6 7
ATOM      7  C   HIS D  12      17.694   5.588  59.978  1.00 51.38 LIG 0.24  C 
ATOM      8  N   ILE D  13      17.273   4.402  60.386  1.00 53.16 LIG-0.34  N 
ATOM      9 H    ILE D  13      16.916   4.297  61.160  1.00 53.16 LIG 0.16  HD
ATOM     10 O    HIS D  12      18.237   5.791  58.901  1.00 51.57 LIG-0.27  OA
BRANCH 8 11
ATOM     11  CA  ILE D  13      17.339   3.138  59.632  1.00 55.12 LIG 0.19  C 
BRANCH 11 12
ATOM     12  CB  ILE D  13      16.557   1.955  60.310  1.00 55.01 LIG 0.01  C 
ATOM     13  CG2 ILE D  13      16.596   0.660  59.478  1.00 56.15 LIG 0.01  C 
BRANCH 12 14
ATOM     14  CG1 ILE D  13      17.097   1.710  61.723  1.00 55.50 LIG 0.00  C 
ATOM     15  CD1 ILE D  13      16.355   0.594  62.506  1.00 55.45 LIG 0.01  C 
ENDBRANCH 12 14
ENDBRANCH 11 12
BRANCH 11 16
ATOM     16  C   ILE D  13      17.153   3.174  58.113  1.00 55.63 LIG 0.20  C 
ATOM     17 OXT  ILE D  13      16.076   3.600  57.673  1.00 55.86 LIG-0.65  OA
ATOM     18 O    ILE D  13      18.054   2.815  57.350  1.00 56.94 LIG-0.65  OA
ENDBRANCH 11 16
ENDBRANCH 8 11
ENDBRANCH 6 7
BRANCH 6 19
ATOM     19  CB  HIS D  12      16.871   7.942  60.232  1.00 50.55 LIG 0.10  C 
BRANCH 19 20
ATOM     20  CG  HIS D  12      16.921   9.206  61.031  1.00 49.61 LIG 0.05  A 
ATOM     21 ND1  HIS D  12      17.943   9.814  61.677  1.00 49.92 LIG-0.25  NA
ATOM     22  CE1 HIS D  12      17.437  10.955  62.249  1.00 49.12 LIG 0.21  A 
ATOM     23  NE2 HIS D  12      16.157  11.058  61.945  1.00 48.62 LIG-0.36  N 
ATOM     24 HE2  HIS D  12      15.633  11.697  62.182  1.00 48.62 LIG 0.17  HD
ATOM     25  CD2 HIS D  12      15.818  10.012  61.214  1.00 48.49 LIG 0.12  A 
ENDBRANCH 19 20
ENDBRANCH 6 19
ENDBRANCH 4 6
ENDBRANCH 1 2
BRANCH 1 26
ATOM     26  CB  LEU D  11      21.528   5.723  62.859  1.00 47.69 LIG 0.04  C 
BRANCH 26 27
ATOM     27  CG  LEU D  11      22.068   5.814  61.426  1.00 48.05 LIG-0.02  C 
ATOM     28  CD1 LEU D  11      21.551   4.647  60.597  1.00 46.53 LIG 0.01  C 
ATOM     29  CD2 LEU D  11      21.745   7.132  60.763  1.00 50.43 LIG 0.01  C 
ENDBRANCH 26 27
ENDBRANCH 1 26
BRANCH 1 30
ATOM     30  N   LEU D  11      20.351   6.691  64.756  1.00 47.51 LIG-0.35  N 
ATOM     31  C   LEU D  10      19.461   7.422  65.429  1.00 47.80 LIG 0.24  C 
ATOM     32 O    LEU D  10      18.574   8.096  64.887  1.00 47.07 LIG-0.27  OA
ATOM     33 H    LEU D  11      20.931   6.184  65.139  1.00 47.51 LIG 0.16  HD
BRANCH 31 34
ATOM     34  CA  LEU D  10      19.599   7.393  66.946  1.00 47.63 LIG 0.18  C 
BRANCH 34 35
ATOM     35  CB  LEU D  10      18.432   6.651  67.591  1.00 47.29 LIG 0.04  C 
BRANCH 35 36
ATOM     36  CG  LEU D  10      18.287   5.197  67.127  1.00 46.92 LIG-0.02  C 
ATOM     37  CD2 LEU D  10      17.383   4.428  68.031  1.00 45.50 LIG 0.01  C 
ATOM     38  CD1 LEU D  10      19.637   4.489  67.038  1.00 46.83 LIG 0.01  C 
ENDBRANCH 35 36
ENDBRANCH 34 35
BRANCH 34 39
ATOM     39  N   LEU D  10      19.731   8.746  67.457  1.00 47.82 LIG-0.35  N 
ATOM     40 H    LEU D  10      19.077   9.014  67.948  1.00 47.82 LIG 0.16  HD
ATOM     41  C   ASP D   9      20.798   9.478  67.164  1.00 48.63 LIG 0.25  C 
ATOM     42 O    ASP D   9      21.714   9.079  66.448  1.00 48.10 LIG-0.27  OA
BRANCH 41 43
ATOM     43  CA  ASP D   9      20.833  10.863  67.754  1.00 49.27 LIG 0.28  C 
BRANCH 43 44
ATOM     44  N   ASP D   9      19.683  11.619  67.194  1.00 49.86 LIG-0.07  N 
ATOM     45 H2   ASP D   9      19.980  12.215  66.603  1.00 49.86 LIG 0.28  HD
ATOM     46 H3   ASP D   9      19.124  11.055  66.792  1.00 49.86 LIG 0.28  HD
ATOM     47 H1   ASP D   9      19.257  12.041  67.851  1.00 49.86 LIG 0.28  HD
ENDBRANCH 43 44
BRANCH 43 48
ATOM     48  CB  ASP D   9      20.717  10.755  69.268  1.00 50.02 LIG 0.15  C 
BRANCH 48 49
ATOM     49  CG  ASP D   9      19.332  11.048  69.766  1.00 50.84 LIG 0.17  C 
ATOM     50 OD1  ASP D   9      18.817  12.140  69.470  1.00 53.44 LIG-0.65  OA
ATOM     51 OD2  ASP D   9      18.664  10.233  70.441  1.00 53.75 LIG-0.65  OA
ENDBRANCH 48 49
ENDBRANCH 43 48
ENDBRANCH 41 43
ENDBRANCH 34 39
ENDBRANCH 31 34
ENDBRANCH 1 30
TORSDOF 20
ENDMDL
MODEL 8
USER: ADFR SOLUTION from run 109
USER: SCORE 13.894079 LL:  -5.157 LR: -10.043 RR:   0.000 FEB:  -4.077
USER: RMSD 1.924882
USER: SEED 108
USER: STATUS searching
USER: GENES 22
USER: genes 0 Translation |==|  0.56675 0.47494 0.52415
USER: genes 1 Rotation |==|  0.50121 0.45621 0.49817 0.99807
USER: genes 2 Torsion [N]-CA--C-[N] |==|  0.34782
USER: genes 3 Torsion [C]-N--CA-[CB] |==|  0.47272
USER: genes 4 Torsion [N]-CA--C-[N] |==|  0.26656
USER: genes 5 Torsion [C]-N--CA-[C] |==|  0.15112
USER: genes 6 Torsion [N]-CA--CB-[CG1] |==|  0.49209
USER: genes 7 Torsion [CA]-CB--CG1-[CD1] |==|  0.64285
USER: genes 8 Torsion [N]-CA--C-[OXT] |==|  0.26603
USER: genes 9 Torsion [N]-CA--CB-[CG] |==|  0.46903
USER: genes 10 Torsion [CA]-CB--CG-[ND1] |==|  0.13252
USER: genes 11 Torsion [C]-CA--CB-[CG] |==|  0.22703
USER: genes 12 Torsion [CA]-CB--CG-[CD2] |==|  0.06513
USER: genes 13 Torsion [C]-CA--N-[C] |==|  0.83771
USER: genes 14 Torsion [N]-C--CA-[N] |==|  0.38215
USER: genes 15 Torsion [C]-CA--CB-[CG] |==|  0.18804
USER: genes 16 Torsion [CA]-CB--CG-[CD2] |==|  0.46254
USER: genes 17 Torsion [C]-CA--N-[C] |==|  0.81711
USER: genes 18 Torsion [N]-C--CA-[N] |==|  0.58127
USER: genes 19 Torsion [C]-CA--N-[H2] |==|  0.65573
USER: genes 20 Torsion [C]-CA--CB-[CG] |==|  0.76275
USER: genes 21 Torsion [CA]-CB--CG-[OD1] |==|  0.84313
ROOT
ATOM      1  CA  LEU D  11      20.433   6.188  63.235  1.00 47.89 LIG 0.18  C 
ENDROOT
BRANCH 1 2
ATOM      2  C   LEU D  11      19.110   6.079  62.488  1.00 48.14 LIG 0.24  C 
ATOM      3 O    LEU D  11      18.324   5.172  62.727  1.00 47.13 LIG-0.27  OA
ATOM      4  N   HIS D  12      18.888   6.993  61.550  1.00 49.28 LIG-0.35  N 
ATOM      5 H    HIS D  12      19.421   7.645  61.371  1.00 49.28 LIG 0.16  HD
BRANCH 4 6
ATOM      6  CA  HIS D  12      17.680   6.946  60.734  1.00 50.49 LIG 0.18  C 
BRANCH 6 7
ATOM      7  C   HIS D  12      17.655   5.716  59.828  1.00 51.38 LIG 0.24  C 
ATOM      8  N   ILE D  13      16.980   4.688  60.316  1.00 53.16 LIG-0.34  N 
ATOM      9 H    ILE D  13      16.618   4.720  61.095  1.00 53.16 LIG 0.16  HD
ATOM     10 O    HIS D  12      18.216   5.717  58.742  1.00 51.57 LIG-0.27  OA
BRANCH 8 11
ATOM     11  CA  ILE D  13      16.746   3.395  59.651  1.00 55.12 LIG 0.19  C 
BRANCH 11 12
ATOM     12  CB  ILE D  13      15.553   3.415  58.628  1.00 55.01 LIG 0.01  C 
ATOM     13  CG2 ILE D  13      15.678   4.545  57.589  1.00 56.15 LIG 0.01  C 
BRANCH 12 14
ATOM     14  CG1 ILE D  13      15.431   2.053  57.938  1.00 55.50 LIG 0.00  C 
ATOM     15  CD1 ILE D  13      15.380   2.125  56.388  1.00 55.45 LIG 0.01  C 
ENDBRANCH 12 14
ENDBRANCH 11 12
BRANCH 11 16
ATOM     16  C   ILE D  13      17.950   2.599  59.138  1.00 55.63 LIG 0.20  C 
ATOM     17 OXT  ILE D  13      18.411   1.713  59.871  1.00 55.86 LIG-0.65  OA
ATOM     18 O    ILE D  13      18.430   2.815  58.023  1.00 56.94 LIG-0.65  OA
ENDBRANCH 11 16
ENDBRANCH 8 11
ENDBRANCH 6 7
BRANCH 6 19
ATOM     19  CB  HIS D  12      17.523   8.218  59.899  1.00 50.55 LIG 0.10  C 
BRANCH 19 20
ATOM     20  CG  HIS D  12      16.458   8.126  58.853  1.00 49.61 LIG 0.05  A 
ATOM     21 ND1  HIS D  12      15.178   7.691  58.917  1.00 49.92 LIG-0.25  NA
ATOM     22  CE1 HIS D  12      14.641   7.829  57.661  1.00 49.12 LIG 0.21  A 
ATOM     23  NE2 HIS D  12      15.550   8.352  56.859  1.00 48.62 LIG-0.36  N 
ATOM     24 HE2  HIS D  12      15.439   8.541  56.028  1.00 48.62 LIG 0.17  HD
ATOM     25  CD2 HIS D  12      16.658   8.537  57.552  1.00 48.49 LIG 0.12  A 
ENDBRANCH 19 20
ENDBRANCH 6 19
ENDBRANCH 4 6
ENDBRANCH 1 2
BRANCH 1 26
ATOM     26  CB  LEU D  11      21.273   4.969  62.872  1.00 47.69 LIG 0.04  C 
BRANCH 26 27
ATOM     27  CG  LEU D  11      22.067   4.970  61.559  1.00 48.05 LIG-0.02  C 
ATOM     28  CD1 LEU D  11      21.331   4.159  60.502  1.00 46.53 LIG 0.01  C 
ATOM     29  CD2 LEU D  11      22.366   6.363  61.058  1.00 50.43 LIG 0.01  C 
ENDBRANCH 26 27
ENDBRANCH 1 26
BRANCH 1 30
ATOM     30  N   LEU D  11      20.278   6.258  64.680  1.00 47.51 LIG-0.35  N 
ATOM     31  C   LEU D  10      19.569   7.212  65.287  1.00 47.80 LIG 0.24  C 
ATOM     32 O    LEU D  10      18.917   8.075  64.682  1.00 47.07 LIG-0.27  OA
ATOM     33 H    LEU D  11      20.684   5.631  65.104  1.00 47.51 LIG 0.16  HD
BRANCH 31 34
ATOM     34  CA  LEU D  10      19.608   7.191  66.809  1.00 47.63 LIG 0.18  C 
BRANCH 34 35
ATOM     35  CB  LEU D  10      18.379   6.492  67.383  1.00 47.29 LIG 0.04  C 
BRANCH 35 36
ATOM     36  CG  LEU D  10      18.326   4.988  67.091  1.00 46.92 LIG-0.02  C 
ATOM     37  CD2 LEU D  10      17.298   4.308  67.933  1.00 45.50 LIG 0.01  C 
ATOM     38  CD1 LEU D  10      19.681   4.317  67.307  1.00 46.83 LIG 0.01  C 
ENDBRANCH 35 36
ENDBRANCH 34 35
BRANCH 34 39
ATOM     39  N   LEU D  10      19.750   8.543  67.320  1.00 47.82 LIG-0.35  N 
ATOM     40 H    LEU D  10      19.075   8.835  67.766  1.00 47.82 LIG 0.16  HD
ATOM     41  C   ASP D   9      20.858   9.237  67.092  1.00 48.63 LIG 0.25  C 
ATOM     42 O    ASP D   9      21.804   8.803  66.439  1.00 48.10 LIG-0.27  OA
BRANCH 41 43
ATOM     43  CA  ASP D   9      20.899  10.626  67.675  1.00 49.27 LIG 0.28  C 
BRANCH 43 44
ATOM     44  N   ASP D   9      21.764  11.456  66.798  1.00 49.86 LIG-0.07  N 
ATOM     45 H2   ASP D   9      22.419  11.816  67.281  1.00 49.86 LIG 0.28  HD
ATOM     46 H3   ASP D   9      22.114  10.947  66.157  1.00 49.86 LIG 0.28  HD
ATOM     47 H1   ASP D   9      21.279  12.105  66.429  1.00 49.86 LIG 0.28  HD
ENDBRANCH 43 44
BRANCH 43 48
ATOM     48  CB  ASP D   9      19.484  11.184  67.716  1.00 50.02 LIG 0.15  C 
BRANCH 48 49
ATOM     49  CG  ASP D   9      19.077  11.828  66.424  1.00 50.84 LIG 0.17  C 
ATOM     50 OD1  ASP D   9      19.781  12.749  65.976  1.00 53.44 LIG-0.65  OA
ATOM     51 OD2  ASP D   9      18.078  11.462  65.765  1.00 53.75 LIG-0.65  OA
ENDBRANCH 48 49
ENDBRANCH 43 48
ENDBRANCH 41 43
ENDBRANCH 34 39
ENDBRANCH 31 34
ENDBRANCH 1 30
TORSDOF 20
ENDMDL
