MODEL 1
USER: ADFR SOLUTION from run 26
USER: SCORE 10.160511 LL:  -1.086 LR:  -9.074 RR:   0.000 FEB:  -6.091
USER: RMSD 1.967837
USER: SEED 25
USER: STATUS no improvement in best 3 clusters for 5 generations
USER: GENES 12
USER: genes 0 Translation |==|  0.49391 0.57675 0.50886
USER: genes 1 Rotation |==|  0.43545 0.48295 0.50883 0.99544
USER: genes 2 Torsion [C]-N--CA-[C] |==|  0.86501
USER: genes 3 Torsion [N]-CA--C-[O] |==|  0.96595
USER: genes 4 Torsion [N]-CA--CB-[CG] |==|  0.73377
USER: genes 5 Torsion [CA]-CB--CG-[CD] |==|  0.71470
USER: genes 6 Torsion [CB]-CG--CD-[CE] |==|  0.71095
USER: genes 7 Torsion [CG]-CD--CE-[NZ] |==|  0.89897
USER: genes 8 Torsion [CD]-CE--NZ-[HZ2] |==|  0.56432
USER: genes 9 Torsion [N]-C--CA-[N] |==|  0.95355
USER: genes 10 Torsion [C]-CA--N-[H1] |==|  0.69588
USER: genes 11 Torsion [C]-CA--CB-[CG1] |==|  0.89032
ROOT
ATOM      1  C   VAL E1321      37.347  41.923  -2.314  1.00100.00 LIG 0.25  C 
ATOM      2 O    VAL E1321      38.420  42.468  -2.227  1.00 26.63 LIG-0.27  OA
ATOM      3  N   LYS E1322      37.204  40.596  -2.264  1.00 27.49 LIG-0.34  N 
ATOM      4 H    LYS E1322      36.446  40.190  -2.293  1.00 27.49 LIG 0.16  HD
ENDROOT
BRANCH 3 5
ATOM      5  CA  LYS E1322      38.368  39.711  -2.151  1.00 83.53 LIG 0.18  C 
BRANCH 5 6
ATOM      6  C   LYS E1322      39.529  39.995  -3.143  1.00 46.63 LIG 0.20  C 
ATOM      7 O    LYS E1322      39.335  40.780  -4.121  1.00 43.95 LIG-0.65  OA
ATOM      8 OXT  LYS E1322      40.678  39.518  -2.866  1.00100.00 LIG-0.65  OA
ENDBRANCH 5 6
BRANCH 5 9
ATOM      9  CB  LYS E1322      37.948  38.266  -2.117  1.00 27.11 LIG 0.04  C 
BRANCH 9 10
ATOM     10  CG  LYS E1322      37.815  37.672  -0.735  1.00 36.61 LIG 0.00  C 
BRANCH 10 11
ATOM     11  CD  LYS E1322      39.023  36.801  -0.420  1.00 49.53 LIG 0.03  C 
BRANCH 11 12
ATOM     12  CE  LYS E1322      38.721  35.316  -0.516  1.00100.00 LIG 0.23  C 
BRANCH 12 13
ATOM     13  NZ  LYS E1322      37.364  34.981  -0.048  1.00 46.56 LIG-0.08  N 
ATOM     14 HZ1  LYS E1322      36.780  35.120  -0.705  1.00 46.56 LIG 0.27  HD
ATOM     15 HZ2  LYS E1322      37.337  34.126   0.197  1.00 46.56 LIG 0.27  HD
ATOM     16 HZ3  LYS E1322      37.155  35.495   0.648  1.00 46.56 LIG 0.27  HD
ENDBRANCH 12 13
ENDBRANCH 11 12
ENDBRANCH 10 11
ENDBRANCH 9 10
ENDBRANCH 5 9
ENDBRANCH 3 5
BRANCH 1 17
ATOM     17  CA  VAL E1321      36.091  42.757  -2.377  1.00 34.64 LIG 0.28  C 
BRANCH 17 18
ATOM     18  N   VAL E1321      34.905  41.989  -2.760  1.00 23.60 LIG-0.07  N 
ATOM     19 H1   VAL E1321      34.651  42.223  -3.580  1.00 23.60 LIG 0.28  HD
ATOM     20 H2   VAL E1321      35.096  41.120  -2.746  1.00 23.60 LIG 0.28  HD
ATOM     21 H3   VAL E1321      34.244  42.155  -2.187  1.00 23.60 LIG 0.28  HD
ENDBRANCH 17 18
BRANCH 17 22
ATOM     22  CB  VAL E1321      35.963  43.510  -1.074  1.00 31.80 LIG 0.02  C 
ATOM     23  CG1 VAL E1321      36.381  42.621   0.116  1.00 29.70 LIG 0.01  C 
ATOM     24  CG2 VAL E1321      36.775  44.817  -1.128  1.00 23.28 LIG 0.01  C 
ENDBRANCH 17 22
ENDBRANCH 1 17
TORSDOF 10
ENDMDL
MODEL 2
USER: ADFR SOLUTION from run 130
USER: SCORE 10.522367 LL:  -1.564 LR:  -8.959 RR:   0.000 FEB:  -5.976
USER: RMSD 1.071033
USER: SEED 129
USER: STATUS 1 or 2 clusters left
USER: GENES 12
USER: genes 0 Translation |==|  0.48972 0.57717 0.47047
USER: genes 1 Rotation |==|  0.52781 0.58557 0.51734 0.99153
USER: genes 2 Torsion [C]-N--CA-[C] |==|  0.57102
USER: genes 3 Torsion [N]-CA--C-[O] |==|  0.08616
USER: genes 4 Torsion [N]-CA--CB-[CG] |==|  0.09221
USER: genes 5 Torsion [CA]-CB--CG-[CD] |==|  0.32065
USER: genes 6 Torsion [CB]-CG--CD-[CE] |==|  0.78989
USER: genes 7 Torsion [CG]-CD--CE-[NZ] |==|  0.71877
USER: genes 8 Torsion [CD]-CE--NZ-[HZ2] |==|  0.81800
USER: genes 9 Torsion [N]-C--CA-[N] |==|  0.98267
USER: genes 10 Torsion [C]-CA--N-[H1] |==|  0.48450
USER: genes 11 Torsion [C]-CA--CB-[CG1] |==|  0.35240
ROOT
ATOM      1  C   VAL E1321      37.222  41.935  -3.466  1.00100.00 LIG 0.25  C 
ATOM      2 O    VAL E1321      38.280  42.489  -3.637  1.00 26.63 LIG-0.27  OA
ATOM      3  N   LYS E1322      37.004  40.665  -3.817  1.00 27.49 LIG-0.34  N 
ATOM      4 H    LYS E1322      36.268  40.243  -3.676  1.00 27.49 LIG 0.16  HD
ENDROOT
BRANCH 3 5
ATOM      5  CA  LYS E1322      38.041  39.877  -4.491  1.00 83.53 LIG 0.18  C 
BRANCH 5 6
ATOM      6  C   LYS E1322      37.530  38.706  -5.375  1.00 46.63 LIG 0.20  C 
ATOM      7 O    LYS E1322      36.406  38.808  -5.955  1.00 43.95 LIG-0.65  OA
ATOM      8 OXT  LYS E1322      38.322  37.728  -5.582  1.00100.00 LIG-0.65  OA
ENDBRANCH 5 6
BRANCH 5 9
ATOM      9  CB  LYS E1322      39.124  39.472  -3.527  1.00 27.11 LIG 0.04  C 
BRANCH 9 10
ATOM     10  CG  LYS E1322      38.656  39.212  -2.114  1.00 36.61 LIG 0.00  C 
BRANCH 10 11
ATOM     11  CD  LYS E1322      38.867  37.748  -1.753  1.00 49.53 LIG 0.03  C 
BRANCH 11 12
ATOM     12  CE  LYS E1322      37.843  36.828  -2.393  1.00100.00 LIG 0.23  C 
BRANCH 12 13
ATOM     13  NZ  LYS E1322      36.780  36.422  -1.455  1.00 46.56 LIG-0.08  N 
ATOM     14 HZ1  LYS E1322      36.162  35.953  -1.891  1.00 46.56 LIG 0.27  HD
ATOM     15 HZ2  LYS E1322      37.130  35.922  -0.807  1.00 46.56 LIG 0.27  HD
ATOM     16 HZ3  LYS E1322      36.405  37.147  -1.100  1.00 46.56 LIG 0.27  HD
ENDBRANCH 12 13
ENDBRANCH 11 12
ENDBRANCH 10 11
ENDBRANCH 9 10
ENDBRANCH 5 9
ENDBRANCH 3 5
BRANCH 1 17
ATOM     17  CA  VAL E1321      36.117  42.653  -2.729  1.00 34.64 LIG 0.28  C 
BRANCH 17 18
ATOM     18  N   VAL E1321      34.883  41.870  -2.632  1.00 23.60 LIG-0.07  N 
ATOM     19 H1   VAL E1321      34.296  42.303  -2.122  1.00 23.60 LIG 0.28  HD
ATOM     20 H2   VAL E1321      34.540  41.753  -3.445  1.00 23.60 LIG 0.28  HD
ATOM     21 H3   VAL E1321      35.062  41.077  -2.269  1.00 23.60 LIG 0.28  HD
ENDBRANCH 17 18
BRANCH 17 22
ATOM     22  CB  VAL E1321      36.669  43.131  -1.408  1.00 31.80 LIG 0.02  C 
ATOM     23  CG1 VAL E1321      36.417  44.643  -1.223  1.00 29.70 LIG 0.01  C 
ATOM     24  CG2 VAL E1321      36.080  42.305  -0.250  1.00 23.28 LIG 0.01  C 
ENDBRANCH 17 22
ENDBRANCH 1 17
TORSDOF 10
ENDMDL
MODEL 3
USER: ADFR SOLUTION from run 156
USER: SCORE 9.874155 LL:  -2.175 LR:  -7.699 RR:   0.000 FEB:  -4.716
USER: RMSD 2.340465
USER: SEED 155
USER: STATUS 1 or 2 clusters left
USER: GENES 12
USER: genes 0 Translation |==|  0.49190 0.57642 0.46953
USER: genes 1 Rotation |==|  0.51363 0.57985 0.52574 0.99272
USER: genes 2 Torsion [C]-N--CA-[C] |==|  0.60415
USER: genes 3 Torsion [N]-CA--C-[O] |==|  0.00563
USER: genes 4 Torsion [N]-CA--CB-[CG] |==|  0.40423
USER: genes 5 Torsion [CA]-CB--CG-[CD] |==|  0.35230
USER: genes 6 Torsion [CB]-CG--CD-[CE] |==|  0.70340
USER: genes 7 Torsion [CG]-CD--CE-[NZ] |==|  0.94442
USER: genes 8 Torsion [CD]-CE--NZ-[HZ2] |==|  0.94551
USER: genes 9 Torsion [N]-C--CA-[N] |==|  0.96674
USER: genes 10 Torsion [C]-CA--N-[H1] |==|  0.46951
USER: genes 11 Torsion [C]-CA--CB-[CG1] |==|  0.34590
ROOT
ATOM      1  C   VAL E1321      37.287  41.913  -3.494  1.00100.00 LIG 0.25  C 
ATOM      2 O    VAL E1321      38.326  42.501  -3.665  1.00 26.63 LIG-0.27  OA
ATOM      3  N   LYS E1322      37.131  40.619  -3.787  1.00 27.49 LIG-0.34  N 
ATOM      4 H    LYS E1322      36.409  40.174  -3.644  1.00 27.49 LIG 0.16  HD
ENDROOT
BRANCH 3 5
ATOM      5  CA  LYS E1322      38.218  39.843  -4.393  1.00 83.53 LIG 0.18  C 
BRANCH 5 6
ATOM      6  C   LYS E1322      37.787  38.795  -5.455  1.00 46.63 LIG 0.20  C 
ATOM      7 O    LYS E1322      36.560  38.691  -5.766  1.00 43.95 LIG-0.65  OA
ATOM      8 OXT  LYS E1322      38.705  38.155  -6.066  1.00100.00 LIG-0.65  OA
ENDBRANCH 5 6
BRANCH 5 9
ATOM      9  CB  LYS E1322      39.137  39.285  -3.339  1.00 27.11 LIG 0.04  C 
BRANCH 9 10
ATOM     10  CG  LYS E1322      39.723  37.929  -3.657  1.00 36.61 LIG 0.00  C 
BRANCH 10 11
ATOM     11  CD  LYS E1322      41.240  37.971  -3.532  1.00 49.53 LIG 0.03  C 
BRANCH 11 12
ATOM     12  CE  LYS E1322      41.944  37.941  -4.877  1.00100.00 LIG 0.23  C 
BRANCH 12 13
ATOM     13  NZ  LYS E1322      41.086  37.416  -5.955  1.00 46.56 LIG-0.08  N 
ATOM     14 HZ1  LYS E1322      41.567  36.889  -6.487  1.00 46.56 LIG 0.27  HD
ATOM     15 HZ2  LYS E1322      40.416  36.949  -5.601  1.00 46.56 LIG 0.27  HD
ATOM     16 HZ3  LYS E1322      40.757  38.094  -6.429  1.00 46.56 LIG 0.27  HD
ENDBRANCH 12 13
ENDBRANCH 11 12
ENDBRANCH 10 11
ENDBRANCH 9 10
ENDBRANCH 5 9
ENDBRANCH 3 5
BRANCH 1 17
ATOM     17  CA  VAL E1321      36.134  42.618  -2.823  1.00 34.64 LIG 0.28  C 
BRANCH 17 18
ATOM     18  N   VAL E1321      34.893  41.841  -2.838  1.00 23.60 LIG-0.07  N 
ATOM     19 H1   VAL E1321      34.296  42.223  -2.299  1.00 23.60 LIG 0.28  HD
ATOM     20 H2   VAL E1321      34.569  41.813  -3.666  1.00 23.60 LIG 0.28  HD
ATOM     21 H3   VAL E1321      35.057  41.013  -2.556  1.00 23.60 LIG 0.28  HD
ENDBRANCH 17 18
BRANCH 17 22
ATOM     22  CB  VAL E1321      36.588  43.060  -1.453  1.00 31.80 LIG 0.02  C 
ATOM     23  CG1 VAL E1321      36.383  44.579  -1.270  1.00 29.70 LIG 0.01  C 
ATOM     24  CG2 VAL E1321      35.867  42.248  -0.361  1.00 23.28 LIG 0.01  C 
ENDBRANCH 17 22
ENDBRANCH 1 17
TORSDOF 10
ENDMDL
