MODEL 1
USER: ADFR SOLUTION from run 44
USER: SCORE 11.876449 LL:  -3.014 LR: -11.159 RR:   0.000 FEB:  -5.492
USER: RMSD 1.989169
USER: SEED 43
USER: STATUS 1 or 2 clusters left
USER: GENES 21
USER: genes 0 Translation |==|  0.50483 0.52776 0.51096
USER: genes 1 Rotation |==|  0.54191 0.44994 0.57247 0.99039
USER: genes 2 Torsion [N]-C--CA-[N] |==|  0.44575
USER: genes 3 Torsion [C]-CA--CB-[CG] |==|  0.27038
USER: genes 4 Torsion [CA]-CB--CG-[CD1] |==|  0.00037
USER: genes 5 Torsion [C]-CA--N-[C] |==|  0.56026
USER: genes 6 Torsion [N]-C--CA-[N] |==|  0.86872
USER: genes 7 Torsion [C]-CA--N-[C] |==|  0.69455
USER: genes 8 Torsion [N]-C--CA-[N] |==|  0.31816
USER: genes 9 Torsion [C]-CA--CB-[CG1] |==|  0.47001
USER: genes 10 Torsion [C]-CA--N-[H3] |==|  0.23120
USER: genes 11 Torsion [C]-N--CA-[CB] |==|  0.35023
USER: genes 12 Torsion [N]-CA--CB-[CG] |==|  0.64071
USER: genes 13 Torsion [CA]-CB--CG-[CD] |==|  0.07981
USER: genes 14 Torsion [CB]-CG--CD-[NE] |==|  0.50288
USER: genes 15 Torsion [CG]-CD--NE-[HE] |==|  0.30347
USER: genes 16 Torsion [N]-CA--C-[N] |==|  0.47053
USER: genes 17 Torsion [C]-N--CA-[CB] |==|  0.83882
USER: genes 18 Torsion [N]-CA--CB-[OG] |==|  0.59118
USER: genes 19 Torsion [CA]-CB--OG-[HG] |==|  0.38061
USER: genes 20 Torsion [N]-CA--C-[O] |==|  0.04613
ROOT
ATOM      1  C   PHE B   3      12.725  14.273   4.569  0.50 54.14 LIG 0.24  C 
ATOM      2 O    PHE B   3      12.952  15.466   4.809  0.50 54.24 LIG-0.27  OA
ATOM      3  N   ARG B   4      11.777  13.828   3.726  0.50 53.92 LIG-0.35  N 
ATOM      4 H    ARG B   4      11.643  12.986   3.615  0.50 53.92 LIG 0.16  HD
ENDROOT
BRANCH 1 5
ATOM      5  CA  PHE B   3      13.366  13.118   5.365  0.50 54.27 LIG 0.18  C 
BRANCH 5 6
ATOM      6  CB  PHE B   3      12.216  13.049   6.376  0.50 54.22 LIG 0.07  C 
BRANCH 6 7
ATOM      7  CG  PHE B   3      11.143  12.022   6.163  0.50 54.33 LIG-0.06  A 
ATOM      8  CD1 PHE B   3      11.114  11.122   5.113  0.50 54.51 LIG 0.01  A 
ATOM      9  CE1 PHE B   3      10.097  10.152   5.061  0.50 54.50 LIG 0.00  A 
ATOM     10  CZ  PHE B   3       9.145  10.079   6.075  0.50 54.39 LIG 0.00  A 
ATOM     11  CE2 PHE B   3       9.203  10.957   7.125  0.50 54.37 LIG 0.00  A 
ATOM     12  CD2 PHE B   3      10.192  11.902   7.168  0.50 54.38 LIG 0.01  A 
ENDBRANCH 6 7
ENDBRANCH 5 6
BRANCH 5 13
ATOM     13  N   PHE B   3      14.708  13.385   5.989  0.50 54.44 LIG-0.35  N 
ATOM     14  C   ALA B   2      15.558  12.397   6.329  0.50 54.50 LIG 0.24  C 
ATOM     15 O    ALA B   2      15.474  11.260   5.965  0.50 54.60 LIG-0.27  OA
ATOM     16 H    PHE B   3      14.879  14.220   6.107  0.50 54.44 LIG 0.16  HD
BRANCH 14 17
ATOM     17  CA  ALA B   2      16.955  12.718   6.996  0.50 54.51 LIG 0.17  C 
ATOM     18  CB  ALA B   2      16.830  12.855   8.523  0.50 54.51 LIG 0.04  C 
BRANCH 17 19
ATOM     19  N   ALA B   2      17.832  13.775   6.414  0.50 54.51 LIG-0.35  N 
ATOM     20  C   VAL B   1      18.988  13.502   5.783  0.50 54.58 LIG 0.25  C 
ATOM     21 O    VAL B   1      19.510  12.383   5.804  0.50 54.60 LIG-0.27  OA
ATOM     22 H    ALA B   2      17.530  14.573   6.521  0.50 54.51 LIG 0.16  HD
BRANCH 20 23
ATOM     23  CA  VAL B   1      19.704  14.696   5.083  0.50 54.68 LIG 0.28  C 
BRANCH 23 24
ATOM     24  CB  VAL B   1      19.871  14.566   3.513  0.50 54.64 LIG 0.02  C 
ATOM     25  CG1 VAL B   1      20.333  15.880   2.902  0.50 54.60 LIG 0.01  C 
ATOM     26  CG2 VAL B   1      20.831  13.485   3.121  0.50 55.61 LIG 0.01  C 
ENDBRANCH 23 24
BRANCH 23 27
ATOM     27  N   VAL B   1      21.009  14.990   5.736  0.50 54.62 LIG-0.07  N 
ATOM     28 H1   VAL B   1      21.240  15.834   5.572  0.50 54.62 LIG 0.28  HD
ATOM     29 H2   VAL B   1      20.936  14.869   6.615  0.50 54.62 LIG 0.28  HD
ATOM     30 H3   VAL B   1      21.633  14.445   5.413  0.50 54.62 LIG 0.28  HD
ENDBRANCH 23 27
ENDBRANCH 20 23
ENDBRANCH 17 19
ENDBRANCH 14 17
ENDBRANCH 5 13
ENDBRANCH 1 5
BRANCH 3 31
ATOM     31  CA  ARG B   4      10.870  14.637   2.904  0.50 53.70 LIG 0.18  C 
BRANCH 31 32
ATOM     32  CB  ARG B   4      10.958  14.224   1.452  0.50 53.42 LIG 0.04  C 
BRANCH 32 33
ATOM     33  CG  ARG B   4      11.169  15.343   0.528  0.50 52.08 LIG 0.02  C 
BRANCH 33 34
ATOM     34  CD  ARG B   4      11.889  16.350   1.284  0.50 49.49 LIG 0.14  C 
BRANCH 34 35
ATOM     35  NE  ARG B   4      12.196  17.570   0.588  0.50 47.76 LIG-0.23  N 
ATOM     36 HE   ARG B   4      11.787  18.297   0.797  0.50 47.76 LIG 0.18  HD
ATOM     37  CZ  ARG B   4      13.096  17.579  -0.364  0.50 46.12 LIG 0.67  C 
ATOM     38  NH1 ARG B   4      13.705  16.436  -0.658  0.50 45.18 LIG-0.23  N 
ATOM     39  NH2 ARG B   4      13.395  18.690  -1.010  0.50 44.70 LIG-0.23  N 
ATOM     40 11HH ARG B   4      13.504  15.719  -0.228  0.50 45.18 LIG 0.17  HD
ATOM     41 12HH ARG B   4      14.300  16.413  -1.279  0.50 45.18 LIG 0.17  HD
ATOM     42 21HH ARG B   4      12.995  19.425  -0.809  0.50 44.70 LIG 0.17  HD
ATOM     43 22HH ARG B   4      13.989  18.679  -1.632  0.50 44.70 LIG 0.17  HD
ENDBRANCH 34 35
ENDBRANCH 33 34
ENDBRANCH 32 33
ENDBRANCH 31 32
BRANCH 31 44
ATOM     44  C   ARG B   4       9.401  14.365   3.198  0.50 54.09 LIG 0.24  C 
ATOM     45 O    ARG B   4       9.025  13.375   3.818  0.50 54.04 LIG-0.27  OA
ATOM     46  N   SER B   5       8.595  15.251   2.621  0.50 54.63 LIG-0.35  N 
ATOM     47 H    SER B   5       8.918  15.930   2.202  0.50 54.63 LIG 0.16  HD
BRANCH 46 48
ATOM     48  CA  SER B   5       7.127  15.249   2.586  0.50 55.09 LIG 0.18  C 
BRANCH 48 49
ATOM     49  CB  SER B   5       6.631  13.954   1.947  0.50 55.14 LIG 0.20  C 
BRANCH 49 50
ATOM     50 OG   SER B   5       5.429  14.190   1.232  0.50 55.40 LIG-0.40  OA
ATOM     51 HG   SER B   5       5.457  13.787   0.495  0.50 55.40 LIG 0.21  HD
ENDBRANCH 49 50
ENDBRANCH 48 49
BRANCH 48 52
ATOM     52  C   SER B   5       6.274  15.515   3.822  0.50 55.23 LIG 0.31  A 
ATOM     53 OXT  SER B   5       6.541  16.038   4.901  0.50 55.49 LIG-0.19  OA
ATOM     54 O    SER B   5       6.887  16.039   4.749  0.50 55.48 LIG-0.19  OA
ENDBRANCH 48 52
ENDBRANCH 46 48
ENDBRANCH 31 44
ENDBRANCH 3 31
TORSDOF 19
ENDMDL
MODEL 2
USER: ADFR SOLUTION from run 156
USER: SCORE 11.314622 LL:  -3.394 LR:  -9.955 RR:   0.000 FEB:  -4.287
USER: RMSD 1.618319
USER: SEED 155
USER: STATUS no improvement in best 3 clusters for 5 generations
USER: GENES 21
USER: genes 0 Translation |==|  0.46785 0.52629 0.48567
USER: genes 1 Rotation |==|  0.44735 0.47987 0.44164 0.99337
USER: genes 2 Torsion [N]-C--CA-[N] |==|  0.51035
USER: genes 3 Torsion [C]-CA--CB-[CG] |==|  0.44180
USER: genes 4 Torsion [CA]-CB--CG-[CD1] |==|  0.11848
USER: genes 5 Torsion [C]-CA--N-[C] |==|  0.60863
USER: genes 6 Torsion [N]-C--CA-[N] |==|  0.85593
USER: genes 7 Torsion [C]-CA--N-[C] |==|  0.63082
USER: genes 8 Torsion [N]-C--CA-[N] |==|  0.29254
USER: genes 9 Torsion [C]-CA--CB-[CG1] |==|  0.53291
USER: genes 10 Torsion [C]-CA--N-[H3] |==|  0.22754
USER: genes 11 Torsion [C]-N--CA-[CB] |==|  0.28333
USER: genes 12 Torsion [N]-CA--CB-[CG] |==|  0.60643
USER: genes 13 Torsion [CA]-CB--CG-[CD] |==|  0.17223
USER: genes 14 Torsion [CB]-CG--CD-[NE] |==|  0.52096
USER: genes 15 Torsion [CG]-CD--NE-[HE] |==|  0.95303
USER: genes 16 Torsion [N]-CA--C-[N] |==|  0.00070
USER: genes 17 Torsion [C]-N--CA-[CB] |==|  0.75952
USER: genes 18 Torsion [N]-CA--CB-[OG] |==|  0.90807
USER: genes 19 Torsion [CA]-CB--OG-[HG] |==|  0.48013
USER: genes 20 Torsion [N]-CA--C-[O] |==|  0.06674
ROOT
ATOM      1  C   PHE B   3      11.616  14.229   3.810  0.50 54.14 LIG 0.24  C 
ATOM      2 O    PHE B   3      12.445  15.127   3.618  0.50 54.24 LIG-0.27  OA
ATOM      3  N   ARG B   4      10.430  14.134   3.185  0.50 53.92 LIG-0.35  N 
ATOM      4 H    ARG B   4       9.877  13.504   3.375  0.50 53.92 LIG 0.16  HD
ENDROOT
BRANCH 1 5
ATOM      5  CA  PHE B   3      11.740  13.199   4.951  0.50 54.27 LIG 0.18  C 
BRANCH 5 6
ATOM      6  CB  PHE B   3      10.487  13.705   5.674  0.50 54.22 LIG 0.07  C 
BRANCH 6 7
ATOM      7  CG  PHE B   3       9.804  12.785   6.642  0.50 54.33 LIG-0.06  A 
ATOM      8  CD1 PHE B   3      10.459  11.986   7.563  0.50 54.51 LIG 0.01  A 
ATOM      9  CE1 PHE B   3       9.708  11.222   8.474  0.50 54.50 LIG 0.00  A 
ATOM     10  CZ  PHE B   3       8.317  11.293   8.469  0.50 54.39 LIG 0.00  A 
ATOM     11  CE2 PHE B   3       7.681  12.111   7.573  0.50 54.37 LIG 0.00  A 
ATOM     12  CD2 PHE B   3       8.418  12.848   6.685  0.50 54.38 LIG 0.01  A 
ENDBRANCH 6 7
ENDBRANCH 5 6
BRANCH 5 13
ATOM     13  N   PHE B   3      12.989  13.259   5.787  0.50 54.44 LIG-0.35  N 
ATOM     14  C   ALA B   2      13.621  12.153   6.225  0.50 54.50 LIG 0.24  C 
ATOM     15 O    ALA B   2      13.432  11.043   5.816  0.50 54.60 LIG-0.27  OA
ATOM     16 H    PHE B   3      13.258  14.058   5.958  0.50 54.44 LIG 0.16  HD
BRANCH 14 17
ATOM     17  CA  ALA B   2      14.924  12.257   7.114  0.50 54.51 LIG 0.17  C 
ATOM     18  CB  ALA B   2      14.577  12.512   8.591  0.50 54.51 LIG 0.04  C 
BRANCH 17 19
ATOM     19  N   ALA B   2      16.069  13.098   6.660  0.50 54.51 LIG-0.35  N 
ATOM     20  C   VAL B   1      17.344  12.669   6.675  0.50 54.58 LIG 0.25  C 
ATOM     21 O    VAL B   1      17.689  11.628   7.243  0.50 54.60 LIG-0.27  OA
ATOM     22 H    ALA B   2      15.838  13.880   6.388  0.50 54.51 LIG 0.16  HD
BRANCH 20 23
ATOM     23  CA  VAL B   1      18.404  13.598   6.012  0.50 54.68 LIG 0.28  C 
BRANCH 23 24
ATOM     24  CB  VAL B   1      19.326  12.912   4.921  0.50 54.64 LIG 0.02  C 
ATOM     25  CG1 VAL B   1      20.498  13.808   4.553  0.50 54.60 LIG 0.01  C 
ATOM     26  CG2 VAL B   1      19.854  11.582   5.365  0.50 55.61 LIG 0.01  C 
ENDBRANCH 23 24
BRANCH 23 27
ATOM     27  N   VAL B   1      19.224  14.291   7.044  0.50 54.62 LIG-0.07  N 
ATOM     28 H1   VAL B   1      19.586  15.024   6.692  0.50 54.62 LIG 0.28  HD
ATOM     29 H2   VAL B   1      18.707  14.518   7.732  0.50 54.62 LIG 0.28  HD
ATOM     30 H3   VAL B   1      19.870  13.748   7.325  0.50 54.62 LIG 0.28  HD
ENDBRANCH 23 27
ENDBRANCH 20 23
ENDBRANCH 17 19
ENDBRANCH 14 17
ENDBRANCH 5 13
ENDBRANCH 1 5
BRANCH 3 31
ATOM     31  CA  ARG B   4       9.903  15.023   2.142  0.50 53.70 LIG 0.18  C 
BRANCH 31 32
ATOM     32  CB  ARG B   4      10.044  14.383   0.779  0.50 53.42 LIG 0.04  C 
BRANCH 32 33
ATOM     33  CG  ARG B   4      10.411  15.325  -0.284  0.50 52.08 LIG 0.02  C 
BRANCH 33 34
ATOM     34  CD  ARG B   4      11.709  15.855   0.088  0.50 49.49 LIG 0.14  C 
BRANCH 34 35
ATOM     35  NE  ARG B   4      12.211  16.933  -0.719  0.50 47.76 LIG-0.23  N 
ATOM     36 HE   ARG B   4      11.868  17.085  -1.493  0.50 47.76 LIG 0.18  HD
ATOM     37  CZ  ARG B   4      13.190  17.686  -0.282  0.50 46.12 LIG 0.67  C 
ATOM     38  NH1 ARG B   4      13.694  17.418   0.918  0.50 45.18 LIG-0.23  N 
ATOM     39  NH2 ARG B   4      13.661  18.683  -1.006  0.50 44.70 LIG-0.23  N 
ATOM     40 11HH ARG B   4      13.378  16.767   1.382  0.50 45.18 LIG 0.17  HD
ATOM     41 12HH ARG B   4      14.338  17.896   1.230  0.50 45.18 LIG 0.17  HD
ATOM     42 21HH ARG B   4      13.324  18.848  -1.780  0.50 44.70 LIG 0.17  HD
ATOM     43 22HH ARG B   4      14.304  19.168  -0.704  0.50 44.70 LIG 0.17  HD
ENDBRANCH 34 35
ENDBRANCH 33 34
ENDBRANCH 32 33
ENDBRANCH 31 32
BRANCH 31 44
ATOM     44  C   ARG B   4       8.395  15.208   2.226  0.50 54.09 LIG 0.24  C 
ATOM     45 O    ARG B   4       7.783  15.982   1.495  0.50 54.04 LIG-0.27  OA
ATOM     46  N   SER B   5       7.855  14.529   3.233  0.50 54.63 LIG-0.35  N 
ATOM     47 H    SER B   5       8.334  13.997   3.710  0.50 54.63 LIG 0.16  HD
BRANCH 46 48
ATOM     48  CA  SER B   5       6.459  14.550   3.692  0.50 55.09 LIG 0.18  C 
BRANCH 48 49
ATOM     49  CB  SER B   5       6.262  15.694   4.684  0.50 55.14 LIG 0.20  C 
BRANCH 49 50
ATOM     50 OG   SER B   5       7.446  15.896   5.439  0.50 55.40 LIG-0.40  OA
ATOM     51 HG   SER B   5       7.363  16.586   5.911  0.50 55.40 LIG 0.21  HD
ENDBRANCH 49 50
ENDBRANCH 48 49
BRANCH 48 52
ATOM     52  C   SER B   5       5.276  14.559   2.730  0.50 55.23 LIG 0.31  A 
ATOM     53 OXT  SER B   5       5.160  14.156   1.575  0.50 55.49 LIG-0.19  OA
ATOM     54 O    SER B   5       5.530  14.091   1.621  0.50 55.48 LIG-0.19  OA
ENDBRANCH 48 52
ENDBRANCH 46 48
ENDBRANCH 31 44
ENDBRANCH 3 31
TORSDOF 19
ENDMDL
