MODEL 1
USER: ADFR SOLUTION from run 11
USER: SCORE 17.479787 LL:  -2.514 LR: -15.121 RR:   0.000 FEB: -10.646
USER: RMSD 1.126141
USER: SEED 462210
USER: STATUS 1 or 2 clusters left
USER: GENES 17
USER: genes 0 Translation |==|  0.51539 0.49214 0.47312
USER: genes 1 Rotation |==|  0.50066 0.53235 0.50308 0.99894
USER: genes 2 Torsion [N]-C--CA-[N] |==|  0.30587
USER: genes 3 Torsion [C]-CA--CB-[CG] |==|  0.54950
USER: genes 4 Torsion [CA]-CB--CG-[OD2] |==|  0.44091
USER: genes 5 Torsion [C]-CA--N-[C] |==|  0.76667
USER: genes 6 Torsion [N]-C--CA-[N] |==|  0.11805
USER: genes 7 Torsion [C]-CA--N-[H2] |==|  0.86790
USER: genes 8 Torsion [C]-CA--CB-[CG] |==|  0.21159
USER: genes 9 Torsion [CA]-CB--CG-[CD2] |==|  0.03841
USER: genes 10 Torsion [N]-CA--C-[O] |==|  0.82868
USER: genes 11 Torsion [C]-N--CA-[CB] |==|  0.53264
USER: genes 12 Torsion [N]-CA--C-[O] |==|  0.57687
USER: genes 13 Torsion [N]-CA--CB-[CG] |==|  0.62491
USER: genes 14 Torsion [CA]-CB--CG-[CD] |==|  0.25630
USER: genes 15 Torsion [CB]-CG--CD-[NE] |==|  0.62425
USER: genes 16 Torsion [CG]-CD--NE-[HE] |==|  0.13336
ROOT
ATOM      1  C   ASP R  39      16.812 -14.446  22.224  1.00 39.81 LIG 0.24  C 
ATOM      2 O    ASP R  39      15.866 -13.684  22.655  1.00 39.68 LIG-0.27  OA
ATOM      3  N   PRO R  40      17.743 -14.181  21.357  1.00 39.27 LIG-0.34  N 
ATOM      4  CA  PRO R  40      17.811 -12.756  20.802  1.00 39.34 LIG 0.18  A 
ATOM      5  CB  PRO R  40      19.100 -12.703  20.029  1.00 38.99 LIG 0.04  A 
ATOM      6  CG  PRO R  40      19.740 -14.067  20.092  1.00 38.95 LIG 0.02  A 
ATOM      7  CD  PRO R  40      18.838 -15.023  20.878  1.00 38.89 LIG 0.13  A 
ENDROOT
BRANCH 1 8
ATOM      8  CA  ASP R  39      16.771 -15.884  22.744  1.00 40.71 LIG 0.19  C 
BRANCH 8 9
ATOM      9  CB  ASP R  39      15.351 -16.523  22.650  1.00 43.11 LIG 0.15  C 
BRANCH 9 10
ATOM     10  CG  ASP R  39      15.183 -17.758  23.534  1.00 44.48 LIG 0.17  C 
ATOM     11 OD2  ASP R  39      14.100 -18.231  23.939  1.00 43.91 LIG-0.65  OA
ATOM     12 OD1  ASP R  39      16.350 -18.208  23.857  1.00 46.24 LIG-0.65  OA
ENDBRANCH 9 10
ENDBRANCH 8 9
BRANCH 8 13
ATOM     13  N   ASP R  39      17.195 -15.804  24.120  1.00 41.53 LIG-0.34  N 
ATOM     14 H    ASP R  39      16.527 -15.765  24.660  1.00 41.53 LIG 0.16  HD
ATOM     15  C   LEU R  38      18.404 -15.788  24.551  1.00 42.61 LIG 0.25  C 
ATOM     16 O    LEU R  38      19.379 -15.772  23.759  1.00 42.97 LIG-0.27  OA
BRANCH 15 17
ATOM     17  CA  LEU R  38      18.519 -15.622  26.086  1.00 43.36 LIG 0.28  C 
BRANCH 17 18
ATOM     18  N   LEU R  38      17.513 -16.465  26.734  1.00 44.18 LIG-0.07  N 
ATOM     19 H1   LEU R  38      17.449 -16.244  27.594  1.00 44.18 LIG 0.28  HD
ATOM     20 H2   LEU R  38      16.725 -16.345  26.338  1.00 44.18 LIG 0.28  HD
ATOM     21 H3   LEU R  38      17.751 -17.319  26.665  1.00 44.18 LIG 0.28  HD
ENDBRANCH 17 18
BRANCH 17 22
ATOM     22  CB  LEU R  38      19.898 -15.948  26.756  1.00 42.68 LIG 0.05  C 
BRANCH 22 23
ATOM     23  CG  LEU R  38      21.036 -14.940  26.621  1.00 43.59 LIG-0.02  C 
ATOM     24  CD2 LEU R  38      20.453 -13.597  26.107  1.00 43.82 LIG 0.01  C 
ATOM     25  CD1 LEU R  38      22.206 -15.411  25.732  1.00 42.78 LIG 0.01  C 
ENDBRANCH 22 23
ENDBRANCH 17 22
ENDBRANCH 15 17
ENDBRANCH 8 13
ENDBRANCH 1 8
BRANCH 4 26
ATOM     26  C   PRO R  40      16.457 -12.519  20.156  1.00 39.48 LIG 0.24  C 
ATOM     27 O    PRO R  40      16.077 -13.256  19.168  1.00 40.12 LIG-0.27  OA
ATOM     28  N   ARG R  41      15.604 -11.616  20.645  1.00 39.52 LIG-0.35  N 
ATOM     29 H    ARG R  41      15.813 -11.122  21.317  1.00 39.52 LIG 0.16  HD
BRANCH 28 30
ATOM     30  CA  ARG R  41      14.229 -11.326  20.143  1.00 39.38 LIG 0.13  C 
BRANCH 30 31
ATOM     31  C   ARG R  41      14.029 -11.208  18.607  1.00 39.99 LIG 0.20  C 
ATOM     32 O    ARG R  41      13.066 -10.461  18.112  1.00 39.75 LIG-0.22  OA
ENDBRANCH 30 31
BRANCH 30 33
ATOM     33  CB  ARG R  41      13.687 -10.013  20.792  1.00 38.11 LIG 0.03  C 
BRANCH 33 34
ATOM     34  CG  ARG R  41      12.214 -10.287  21.242  1.00 35.63 LIG 0.02  C 
BRANCH 34 35
ATOM     35  CD  ARG R  41      12.210 -10.739  22.622  1.00 36.53 LIG 0.14  C 
BRANCH 35 36
ATOM     36  NE  ARG R  41      11.350 -11.925  23.026  1.00 36.92 LIG-0.23  N 
ATOM     37 HE   ARG R  41      11.377 -12.642  22.551  1.00 36.92 LIG 0.18  HD
ATOM     38  CZ  ARG R  41      10.525 -11.887  24.137  1.00 37.60 LIG 0.67  C 
ATOM     39  NH2 ARG R  41       9.980 -13.086  24.577  1.00 37.55 LIG-0.23  N 
ATOM     40  NH1 ARG R  41      10.350 -10.778  24.930  1.00 34.72 LIG-0.23  N 
ATOM     41 21HH ARG R  41      10.159 -13.817  24.161  1.00 37.55 LIG 0.17  HD
ATOM     42 22HH ARG R  41       9.463 -13.097  25.264  1.00 37.55 LIG 0.17  HD
ATOM     43 11HH ARG R  41      10.767 -10.048  24.747  1.00 34.72 LIG 0.17  HD
ATOM     44 12HH ARG R  41       9.823 -10.814  25.609  1.00 34.72 LIG 0.17  HD
ENDBRANCH 35 36
ENDBRANCH 34 35
ENDBRANCH 33 34
ENDBRANCH 30 33
ENDBRANCH 28 30
ENDBRANCH 4 26
TORSDOF 15
ENDMDL
