MODEL 1
USER: ADFR SOLUTION from run 142
USER: SCORE 13.308996 LL:  -2.154 LR: -11.573 RR:   0.000 FEB:  -7.098
USER: RMSD 1.481133
USER: SEED 141
USER: STATUS 1 or 2 clusters left
USER: GENES 17
USER: genes 0 Translation |==|  0.50570 0.51070 0.46162
USER: genes 1 Rotation |==|  0.61607 0.56501 0.46029 0.98034
USER: genes 2 Torsion [C]-CA--N-[C] |==|  0.62469
USER: genes 3 Torsion [N]-C--CA-[N] |==|  0.45064
USER: genes 4 Torsion [C]-CA--N-[C] |==|  0.55412
USER: genes 5 Torsion [N]-C--CA-[N] |==|  0.62728
USER: genes 6 Torsion [C]-CA--N-[H1] |==|  0.53383
USER: genes 7 Torsion [C]-CA--CB-[OG] |==|  0.14088
USER: genes 8 Torsion [CA]-CB--OG-[HG] |==|  0.07457
USER: genes 9 Torsion [N]-CA--CB-[CG1] |==|  0.66371
USER: genes 10 Torsion [N]-CA--C-[N] |==|  0.37109
USER: genes 11 Torsion [C]-N--CA-[C] |==|  0.75000
USER: genes 12 Torsion [N]-CA--C-[N] |==|  0.39220
USER: genes 13 Torsion [C]-N--CA-[CB] |==|  0.85737
USER: genes 14 Torsion [N]-CA--C-[O] |==|  0.38071
USER: genes 15 Torsion [N]-CA--CB-[OG] |==|  0.09418
USER: genes 16 Torsion [CA]-CB--OG-[HG] |==|  0.55354
ROOT
ATOM      1  CA  VAL B 303      13.301   4.101  31.599  1.00 28.18 LIG 0.18  C 
ENDROOT
BRANCH 1 2
ATOM      2  N   VAL B 303      12.180   3.706  32.442  1.00 29.68 LIG-0.35  N 
ATOM      3  C   SER B 302      11.638   2.493  32.376  1.00 31.00 LIG 0.24  C 
ATOM      4 O    SER B 302      12.030   1.633  31.576  1.00 32.88 LIG-0.27  OA
ATOM      5 H    VAL B 303      11.908   4.322  32.978  1.00 29.68 LIG 0.16  HD
BRANCH 3 6
ATOM      6  CA  SER B 302      10.465   2.216  33.337  1.00 30.54 LIG 0.20  C 
BRANCH 6 7
ATOM      7  N   SER B 302       9.680   1.051  32.920  1.00 26.47 LIG-0.34  N 
ATOM      8  C   ALA B 301       8.434   0.842  33.347  1.00 26.40 LIG 0.25  C 
ATOM      9 O    ALA B 301       7.857   1.579  34.148  1.00 23.28 LIG-0.27  OA
ATOM     10 H    SER B 302      10.093   0.523  32.382  1.00 26.47 LIG 0.16  HD
BRANCH 8 11
ATOM     11  CA  ALA B 301       7.736  -0.409  32.814  1.00 27.42 LIG 0.27  C 
ATOM     12  CB  ALA B 301       8.529  -1.013  31.616  1.00 28.79 LIG 0.05  C 
BRANCH 11 13
ATOM     13  N   ALA B 301       6.346  -0.068  32.376  1.00 29.28 LIG-0.07  N 
ATOM     14 H1   ALA B 301       5.887  -0.818  32.234  1.00 29.28 LIG 0.28  HD
ATOM     15 H2   ALA B 301       5.943   0.410  33.009  1.00 29.28 LIG 0.28  HD
ATOM     16 H3   ALA B 301       6.379   0.405  31.623  1.00 29.28 LIG 0.28  HD
ENDBRANCH 11 13
ENDBRANCH 8 11
ENDBRANCH 6 7
BRANCH 6 17
ATOM     17  CB  SER B 302      11.015   2.028  34.755  1.00 31.87 LIG 0.20  C 
BRANCH 17 18
ATOM     18 OG   SER B 302      11.871   3.097  35.094  1.00 37.10 LIG-0.40  OA
ATOM     19 HG   SER B 302      11.651   3.781  34.659  1.00 37.10 LIG 0.21  HD
ENDBRANCH 17 18
ENDBRANCH 6 17
ENDBRANCH 3 6
ENDBRANCH 1 2
BRANCH 1 20
ATOM     20  CB  VAL B 303      12.832   5.048  30.428  1.00 29.00 LIG 0.01  C 
ATOM     21  CG1 VAL B 303      13.180   4.423  29.092  1.00 28.23 LIG 0.01  C 
ATOM     22  CG2 VAL B 303      11.317   5.280  30.491  1.00 26.76 LIG 0.01  C 
ENDBRANCH 1 20
BRANCH 1 23
ATOM     23  C   VAL B 303      14.307   4.825  32.478  1.00 28.25 LIG 0.24  C 
ATOM     24 O    VAL B 303      13.932   5.674  33.294  1.00 25.63 LIG-0.27  OA
ATOM     25  N   SER B 304      15.582   4.481  32.354  1.00 28.07 LIG-0.34  N 
ATOM     26 H    SER B 304      15.877   3.867  31.829  1.00 28.07 LIG 0.16  HD
BRANCH 25 27
ATOM     27  CA  SER B 304      16.599   5.164  33.143  1.00 30.78 LIG 0.20  C 
BRANCH 27 28
ATOM     28  C   SER B 304      17.092   6.373  32.336  1.00 31.57 LIG 0.24  C 
ATOM     29 O    SER B 304      17.264   6.279  31.117  1.00 32.88 LIG-0.27  OA
ATOM     30  N   ALA B 305      17.340   7.490  33.017  1.00 33.00 LIG-0.35  N 
ATOM     31 H    ALA B 305      17.255   7.547  33.871  1.00 33.00 LIG 0.16  HD
BRANCH 30 32
ATOM     32  CA  ALA B 305      17.786   8.741  32.386  1.00 34.21 LIG 0.16  C 
ATOM     33  CB  ALA B 305      19.023   8.449  31.466  1.00 33.59 LIG 0.04  C 
BRANCH 32 34
ATOM     34  C   ALA B 305      16.678   9.358  31.546  1.00 34.64 LIG 0.22  C 
ATOM     35 O    ALA B 305      16.505  10.600  31.625  1.00 35.93 LIG-0.29  OA
ENDBRANCH 32 34
ENDBRANCH 30 32
ENDBRANCH 27 28
BRANCH 27 36
ATOM     36  CB  SER B 304      17.757   4.216  33.454  1.00 32.96 LIG 0.20  C 
BRANCH 36 37
ATOM     37 OG   SER B 304      17.945   3.325  32.366  1.00 37.22 LIG-0.40  OA
ATOM     38 HG   SER B 304      18.380   2.655  32.624  1.00 37.22 LIG 0.21  HD
ENDBRANCH 36 37
ENDBRANCH 27 36
ENDBRANCH 25 27
ENDBRANCH 1 23
TORSDOF 15
ENDMDL
