MODEL 1
USER: ADFR SOLUTION from run 160
USER: SCORE 10.968686 LL:  -2.036 LR: -10.619 RR:   0.000 FEB:  -5.548
USER: RMSD 2.086595
USER: SEED 159
USER: STATUS no improvement in best 2 clusters for 5 generations
USER: GENES 19
USER: genes 0 Translation |==|  0.53636 0.55832 0.52710
USER: genes 1 Rotation |==|  0.51666 0.51012 0.57141 0.99449
USER: genes 2 Torsion [N]-C--CA-[N] |==|  0.36643
USER: genes 3 Torsion [C]-CA--CB-[CG] |==|  0.15656
USER: genes 4 Torsion [CA]-CB--CG-[CD] |==|  0.36909
USER: genes 5 Torsion [CB]-CG--CD-[CE] |==|  0.54331
USER: genes 6 Torsion [CG]-CD--CE-[NZ] |==|  0.13779
USER: genes 7 Torsion [CD]-CE--NZ-[HZ2] |==|  0.31168
USER: genes 8 Torsion [C]-CA--N-[C] |==|  0.62146
USER: genes 9 Torsion [N]-C--CA-[N] |==|  0.46018
USER: genes 10 Torsion [C]-CA--N-[H1] |==|  0.65234
USER: genes 11 Torsion [C]-N--CA-[CB] |==|  0.75556
USER: genes 12 Torsion [N]-CA--C-[N] |==|  0.37499
USER: genes 13 Torsion [C]-N--CA-[CB] |==|  0.36465
USER: genes 14 Torsion [N]-CA--CB-[CG1] |==|  0.59472
USER: genes 15 Torsion [CA]-CB--CG1-[CD1] |==|  0.55716
USER: genes 16 Torsion [N]-CA--C-[N] |==|  0.86781
USER: genes 17 Torsion [C]-N--CA-[CB] |==|  0.32842
USER: genes 18 Torsion [N]-CA--C-[O] |==|  0.93288
ROOT
ATOM      1  C   LYS E 802     -11.749  23.309  35.293  1.00 51.37 LIG 0.24  C 
ATOM      2 O    LYS E 802     -12.425  23.790  34.389  1.00 54.76 LIG-0.27  OA
ATOM      3  N   ALA E 803     -11.787  22.020  35.622  1.00 53.01 LIG-0.35  N 
ATOM      4 H    ALA E 803     -11.263  21.673  36.209  1.00 53.01 LIG 0.16  HD
ENDROOT
BRANCH 1 5
ATOM      5  CA  LYS E 802     -10.807  24.192  36.119  1.00 50.80 LIG 0.18  C 
BRANCH 5 6
ATOM      6  CB  LYS E 802     -11.677  25.000  37.083  1.00 49.65 LIG 0.04  C 
BRANCH 6 7
ATOM      7  CG  LYS E 802     -12.562  24.184  37.977  1.00 48.72 LIG 0.00  C 
BRANCH 7 8
ATOM      8  CD  LYS E 802     -12.449  24.677  39.402  1.00 52.85 LIG 0.03  C 
BRANCH 8 9
ATOM      9  CE  LYS E 802     -13.013  23.664  40.370  1.00 52.25 LIG 0.23  C 
BRANCH 9 10
ATOM     10  NZ  LYS E 802     -12.465  22.310  40.112  1.00 53.26 LIG-0.08  N 
ATOM     11 HZ1  LYS E 802     -11.988  22.321  39.361  1.00 53.26 LIG 0.27  HD
ATOM     12 HZ2  LYS E 802     -11.943  22.066  40.790  1.00 53.26 LIG 0.27  HD
ATOM     13 HZ3  LYS E 802     -13.135  21.730  40.029  1.00 53.26 LIG 0.27  HD
ENDBRANCH 9 10
ENDBRANCH 8 9
ENDBRANCH 7 8
ENDBRANCH 6 7
ENDBRANCH 5 6
BRANCH 5 14
ATOM     14  N   LYS E 802      -9.884  25.115  35.456  1.00 51.06 LIG-0.35  N 
ATOM     15 H    LYS E 802     -10.216  25.566  34.804  1.00 51.06 LIG 0.16  HD
ATOM     16  C   ALA E 801      -8.621  25.199  35.889  1.00 50.59 LIG 0.25  C 
ATOM     17 O    ALA E 801      -8.180  24.484  36.791  1.00 51.18 LIG-0.27  OA
BRANCH 16 18
ATOM     18  CA  ALA E 801      -7.694  26.198  35.208  1.00 50.00 LIG 0.27  C 
ATOM     19  CB  ALA E 801      -7.319  25.690  33.806  1.00 45.45 LIG 0.05  C 
BRANCH 18 20
ATOM     20  N   ALA E 801      -6.466  26.409  36.013  1.00 50.21 LIG-0.07  N 
ATOM     21 H3   ALA E 801      -5.760  26.110  35.562  1.00 50.21 LIG 0.28  HD
ATOM     22 H2   ALA E 801      -6.534  25.966  36.782  1.00 50.21 LIG 0.28  HD
ATOM     23 H1   ALA E 801      -6.364  27.278  36.179  1.00 50.21 LIG 0.28  HD
ENDBRANCH 18 20
ENDBRANCH 16 18
ENDBRANCH 5 14
ENDBRANCH 1 5
BRANCH 3 24
ATOM     24  CA  ALA E 803     -12.718  21.050  35.026  1.00 57.29 LIG 0.17  C 
ATOM     25  CB  ALA E 803     -14.016  21.059  35.839  1.00 55.60 LIG 0.04  C 
BRANCH 24 26
ATOM     26  C   ALA E 803     -13.091  20.962  33.547  1.00 59.81 LIG 0.24  C 
ATOM     27 O    ALA E 803     -13.409  21.948  32.885  1.00 62.26 LIG-0.27  OA
ATOM     28  N   ILE E 804     -13.086  19.715  33.081  1.00 62.20 LIG-0.35  N 
ATOM     29 H    ILE E 804     -12.859  19.051  33.579  1.00 62.20 LIG 0.16  HD
BRANCH 28 30
ATOM     30  CA  ILE E 804     -13.441  19.288  31.727  1.00 63.57 LIG 0.18  C 
BRANCH 30 31
ATOM     31  CB  ILE E 804     -12.394  18.338  31.100  1.00 63.71 LIG 0.01  C 
ATOM     32  CG2 ILE E 804     -12.780  16.890  31.366  1.00 63.48 LIG 0.01  C 
BRANCH 31 33
ATOM     33  CG1 ILE E 804     -12.291  18.573  29.595  1.00 63.94 LIG 0.00  C 
ATOM     34  CD1 ILE E 804     -11.700  17.422  28.847  1.00 63.94 LIG 0.01  C 
ENDBRANCH 31 33
ENDBRANCH 30 31
BRANCH 30 35
ATOM     35  C   ILE E 804     -14.732  18.492  31.936  1.00 65.71 LIG 0.24  C 
ATOM     36  N   ALA E 805     -14.736  17.588  32.912  1.00 67.46 LIG-0.35  N 
ATOM     37 H    ALA E 805     -14.064  17.429  33.425  1.00 67.46 LIG 0.16  HD
ATOM     38 O    ILE E 804     -15.710  18.692  31.208  1.00 65.35 LIG-0.27  OA
BRANCH 36 39
ATOM     39  CA  ALA E 805     -15.919  16.775  33.188  1.00 69.21 LIG 0.16  C 
ATOM     40  CB  ALA E 805     -15.598  15.293  32.979  1.00 68.65 LIG 0.04  C 
BRANCH 39 41
ATOM     41  C   ALA E 805     -16.438  17.003  34.606  1.00 70.07 LIG 0.22  C 
ATOM     42 O    ALA E 805     -15.621  17.419  35.460  1.00 70.08 LIG-0.29  OA
ENDBRANCH 39 41
ENDBRANCH 36 39
ENDBRANCH 30 35
ENDBRANCH 28 30
ENDBRANCH 24 26
ENDBRANCH 3 24
TORSDOF 17
ENDMDL
MODEL 2
USER: ADFR SOLUTION from run 150
USER: SCORE 10.760275 LL:  -2.358 LR:  -9.912 RR:   0.000 FEB:  -4.841
USER: RMSD 1.862624
USER: SEED 149
USER: STATUS 1 or 2 clusters left
USER: GENES 19
USER: genes 0 Translation |==|  0.54207 0.55071 0.52157
USER: genes 1 Rotation |==|  0.47962 0.47964 0.53872 0.99767
USER: genes 2 Torsion [N]-C--CA-[N] |==|  0.43501
USER: genes 3 Torsion [C]-CA--CB-[CG] |==|  0.98392
USER: genes 4 Torsion [CA]-CB--CG-[CD] |==|  0.44432
USER: genes 5 Torsion [CB]-CG--CD-[CE] |==|  0.72748
USER: genes 6 Torsion [CG]-CD--CE-[NZ] |==|  0.23180
USER: genes 7 Torsion [CD]-CE--NZ-[HZ2] |==|  0.17850
USER: genes 8 Torsion [C]-CA--N-[C] |==|  0.59976
USER: genes 9 Torsion [N]-C--CA-[N] |==|  0.43937
USER: genes 10 Torsion [C]-CA--N-[H1] |==|  0.57216
USER: genes 11 Torsion [C]-N--CA-[CB] |==|  0.71795
USER: genes 12 Torsion [N]-CA--C-[N] |==|  0.32128
USER: genes 13 Torsion [C]-N--CA-[CB] |==|  0.44926
USER: genes 14 Torsion [N]-CA--CB-[CG1] |==|  0.57904
USER: genes 15 Torsion [CA]-CB--CG1-[CD1] |==|  0.52385
USER: genes 16 Torsion [N]-CA--C-[N] |==|  0.44539
USER: genes 17 Torsion [C]-N--CA-[CB] |==|  0.20581
USER: genes 18 Torsion [N]-CA--C-[O] |==|  0.61201
ROOT
ATOM      1  C   LYS E 802     -11.578  23.081  35.127  1.00 51.37 LIG 0.24  C 
ATOM      2 O    LYS E 802     -12.058  23.509  34.082  1.00 54.76 LIG-0.27  OA
ATOM      3  N   ALA E 803     -11.838  21.865  35.603  1.00 53.01 LIG-0.35  N 
ATOM      4 H    ALA E 803     -11.447  21.543  36.297  1.00 53.01 LIG 0.16  HD
ENDROOT
BRANCH 1 5
ATOM      5  CA  LYS E 802     -10.634  23.949  35.967  1.00 50.80 LIG 0.18  C 
BRANCH 5 6
ATOM      6  CB  LYS E 802     -11.461  24.530  37.116  1.00 49.65 LIG 0.04  C 
BRANCH 6 7
ATOM      7  CG  LYS E 802     -12.930  24.238  37.053  1.00 48.72 LIG 0.00  C 
BRANCH 7 8
ATOM      8  CD  LYS E 802     -13.549  24.411  38.421  1.00 52.85 LIG 0.03  C 
BRANCH 8 9
ATOM      9  CE  LYS E 802     -13.693  23.081  39.122  1.00 52.25 LIG 0.23  C 
BRANCH 9 10
ATOM     10  NZ  LYS E 802     -12.430  22.687  39.793  1.00 53.26 LIG-0.08  N 
ATOM     11 HZ1  LYS E 802     -11.767  22.681  39.199  1.00 53.26 LIG 0.27  HD
ATOM     12 HZ2  LYS E 802     -12.242  23.270  40.439  1.00 53.26 LIG 0.27  HD
ATOM     13 HZ3  LYS E 802     -12.521  21.875  40.143  1.00 53.26 LIG 0.27  HD
ENDBRANCH 9 10
ENDBRANCH 8 9
ENDBRANCH 7 8
ENDBRANCH 6 7
ENDBRANCH 5 6
BRANCH 5 14
ATOM     14  N   LYS E 802      -9.884  25.043  35.348  1.00 51.06 LIG-0.35  N 
ATOM     15 H    LYS E 802     -10.296  25.469  34.725  1.00 51.06 LIG 0.16  HD
ATOM     16  C   ALA E 801      -8.643  25.306  35.773  1.00 50.59 LIG 0.25  C 
ATOM     17 O    ALA E 801      -8.077  24.625  36.629  1.00 51.18 LIG-0.27  OA
BRANCH 16 18
ATOM     18  CA  ALA E 801      -7.901  26.477  35.140  1.00 50.00 LIG 0.27  C 
ATOM     19  CB  ALA E 801      -7.313  26.049  33.785  1.00 45.45 LIG 0.05  C 
BRANCH 18 20
ATOM     20  N   ALA E 801      -6.816  26.956  36.031  1.00 50.21 LIG-0.07  N 
ATOM     21 H3   ALA E 801      -6.080  26.478  35.887  1.00 50.21 LIG 0.28  HD
ATOM     22 H2   ALA E 801      -7.067  26.865  36.881  1.00 50.21 LIG 0.28  HD
ATOM     23 H1   ALA E 801      -6.649  27.814  35.862  1.00 50.21 LIG 0.28  HD
ENDBRANCH 18 20
ENDBRANCH 16 18
ENDBRANCH 5 14
ENDBRANCH 1 5
BRANCH 3 24
ATOM     24  CA  ALA E 803     -12.812  20.942  35.000  1.00 57.29 LIG 0.17  C 
ATOM     25  CB  ALA E 803     -14.098  20.981  35.832  1.00 55.60 LIG 0.04  C 
BRANCH 24 26
ATOM     26  C   ALA E 803     -13.209  20.899  33.525  1.00 59.81 LIG 0.24  C 
ATOM     27 O    ALA E 803     -13.821  21.813  32.977  1.00 62.26 LIG-0.27  OA
ATOM     28  N   ILE E 804     -12.869  19.759  32.927  1.00 62.20 LIG-0.35  N 
ATOM     29 H    ILE E 804     -12.442  19.142  33.348  1.00 62.20 LIG 0.16  HD
BRANCH 28 30
ATOM     30  CA  ILE E 804     -13.147  19.385  31.539  1.00 63.57 LIG 0.18  C 
BRANCH 30 31
ATOM     31  CB  ILE E 804     -12.254  18.227  31.037  1.00 63.71 LIG 0.01  C 
ATOM     32  CG2 ILE E 804     -12.896  16.889  31.378  1.00 63.48 LIG 0.01  C 
BRANCH 31 33
ATOM     33  CG1 ILE E 804     -12.047  18.327  29.528  1.00 63.94 LIG 0.00  C 
ATOM     34  CD1 ILE E 804     -11.366  17.135  28.935  1.00 63.94 LIG 0.01  C 
ENDBRANCH 31 33
ENDBRANCH 30 31
BRANCH 30 35
ATOM     35  C   ILE E 804     -14.589  18.877  31.595  1.00 65.71 LIG 0.24  C 
ATOM     36  N   ALA E 805     -15.264  18.839  30.449  1.00 67.46 LIG-0.35  N 
ATOM     37 H    ALA E 805     -14.939  19.078  29.689  1.00 67.46 LIG 0.16  HD
ATOM     38 O    ILE E 804     -15.088  18.535  32.673  1.00 65.35 LIG-0.27  OA
BRANCH 36 39
ATOM     39  CA  ALA E 805     -16.649  18.373  30.399  1.00 69.21 LIG 0.16  C 
ATOM     40  CB  ALA E 805     -17.581  19.436  30.987  1.00 68.65 LIG 0.04  C 
BRANCH 39 41
ATOM     41  C   ALA E 805     -17.076  18.035  28.971  1.00 70.07 LIG 0.22  C 
ATOM     42 O    ALA E 805     -18.230  18.368  28.620  1.00 70.08 LIG-0.29  OA
ENDBRANCH 39 41
ENDBRANCH 36 39
ENDBRANCH 30 35
ENDBRANCH 28 30
ENDBRANCH 24 26
ENDBRANCH 3 24
TORSDOF 17
ENDMDL
MODEL 3
USER: ADFR SOLUTION from run 56
USER: SCORE 10.199134 LL:  -2.384 LR:  -9.199 RR:   0.000 FEB:  -4.128
USER: RMSD 1.910205
USER: SEED 55
USER: STATUS searching
USER: GENES 19
USER: genes 0 Translation |==|  0.53016 0.55342 0.51735
USER: genes 1 Rotation |==|  0.47174 0.49096 0.54112 0.99742
USER: genes 2 Torsion [N]-C--CA-[N] |==|  0.41339
USER: genes 3 Torsion [C]-CA--CB-[CG] |==|  0.36332
USER: genes 4 Torsion [CA]-CB--CG-[CD] |==|  0.28223
USER: genes 5 Torsion [CB]-CG--CD-[CE] |==|  0.57669
USER: genes 6 Torsion [CG]-CD--CE-[NZ] |==|  0.18601
USER: genes 7 Torsion [CD]-CE--NZ-[HZ2] |==|  0.05653
USER: genes 8 Torsion [C]-CA--N-[C] |==|  0.58023
USER: genes 9 Torsion [N]-C--CA-[N] |==|  0.42375
USER: genes 10 Torsion [C]-CA--N-[H1] |==|  0.58197
USER: genes 11 Torsion [C]-N--CA-[CB] |==|  0.76014
USER: genes 12 Torsion [N]-CA--C-[N] |==|  0.38434
USER: genes 13 Torsion [C]-N--CA-[CB] |==|  0.26555
USER: genes 14 Torsion [N]-CA--CB-[CG1] |==|  0.63122
USER: genes 15 Torsion [CA]-CB--CG1-[CD1] |==|  0.60962
USER: genes 16 Torsion [N]-CA--C-[N] |==|  0.44802
USER: genes 17 Torsion [C]-N--CA-[CB] |==|  0.41823
USER: genes 18 Torsion [N]-CA--C-[O] |==|  0.91662
ROOT
ATOM      1  C   LYS E 802     -11.935  23.162  35.001  1.00 51.37 LIG 0.24  C 
ATOM      2 O    LYS E 802     -12.463  23.550  33.963  1.00 54.76 LIG-0.27  OA
ATOM      3  N   ALA E 803     -12.166  21.962  35.529  1.00 53.01 LIG-0.35  N 
ATOM      4 H    ALA E 803     -11.743  21.667  36.217  1.00 53.01 LIG 0.16  HD
ENDROOT
BRANCH 1 5
ATOM      5  CA  LYS E 802     -10.962  24.065  35.768  1.00 50.80 LIG 0.18  C 
BRANCH 5 6
ATOM      6  CB  LYS E 802     -11.784  24.831  36.806  1.00 49.65 LIG 0.04  C 
BRANCH 6 7
ATOM      7  CG  LYS E 802     -11.230  24.807  38.200  1.00 48.72 LIG 0.00  C 
BRANCH 7 8
ATOM      8  CD  LYS E 802     -10.527  26.112  38.497  1.00 52.85 LIG 0.03  C 
BRANCH 8 9
ATOM      9  CE  LYS E 802      -9.436  25.916  39.522  1.00 52.25 LIG 0.23  C 
BRANCH 9 10
ATOM     10  NZ  LYS E 802      -8.334  25.083  38.983  1.00 53.26 LIG-0.08  N 
ATOM     11 HZ1  LYS E 802      -8.426  24.246  39.271  1.00 53.26 LIG 0.27  HD
ATOM     12 HZ2  LYS E 802      -8.361  25.094  38.093  1.00 53.26 LIG 0.27  HD
ATOM     13 HZ3  LYS E 802      -7.553  25.408  39.260  1.00 53.26 LIG 0.27  HD
ENDBRANCH 9 10
ENDBRANCH 8 9
ENDBRANCH 7 8
ENDBRANCH 6 7
ENDBRANCH 5 6
BRANCH 5 14
ATOM     14  N   LYS E 802     -10.122  25.027  35.053  1.00 51.06 LIG-0.35  N 
ATOM     15 H    LYS E 802     -10.447  25.328  34.317  1.00 51.06 LIG 0.16  HD
ATOM     16  C   ALA E 801      -8.936  25.368  35.571  1.00 50.59 LIG 0.25  C 
ATOM     17 O    ALA E 801      -8.491  24.860  36.600  1.00 51.18 LIG-0.27  OA
BRANCH 16 18
ATOM     18  CA  ALA E 801      -8.100  26.403  34.827  1.00 50.00 LIG 0.27  C 
ATOM     19  CB  ALA E 801      -7.254  25.710  33.746  1.00 45.45 LIG 0.05  C 
BRANCH 18 20
ATOM     20  N   ALA E 801      -7.216  27.137  35.765  1.00 50.21 LIG-0.07  N 
ATOM     21 H3   ALA E 801      -6.440  26.709  35.838  1.00 50.21 LIG 0.28  HD
ATOM     22 H2   ALA E 801      -7.605  27.185  36.565  1.00 50.21 LIG 0.28  HD
ATOM     23 H1   ALA E 801      -7.072  27.959  35.456  1.00 50.21 LIG 0.28  HD
ENDBRANCH 18 20
ENDBRANCH 16 18
ENDBRANCH 5 14
ENDBRANCH 1 5
BRANCH 3 24
ATOM     24  CA  ALA E 803     -13.158  21.013  35.002  1.00 57.29 LIG 0.17  C 
ATOM     25  CB  ALA E 803     -14.519  21.335  35.628  1.00 55.60 LIG 0.04  C 
BRANCH 24 26
ATOM     26  C   ALA E 803     -13.385  20.685  33.527  1.00 59.81 LIG 0.24  C 
ATOM     27 O    ALA E 803     -13.431  21.550  32.656  1.00 62.26 LIG-0.27  OA
ATOM     28  N   ILE E 804     -13.579  19.386  33.306  1.00 62.20 LIG-0.35  N 
ATOM     29 H    ILE E 804     -13.541  18.812  33.945  1.00 62.20 LIG 0.16  HD
BRANCH 28 30
ATOM     30  CA  ILE E 804     -13.869  18.754  32.018  1.00 63.57 LIG 0.18  C 
BRANCH 30 31
ATOM     31  CB  ILE E 804     -12.605  18.202  31.319  1.00 63.71 LIG 0.01  C 
ATOM     32  CG2 ILE E 804     -12.579  16.683  31.414  1.00 63.48 LIG 0.01  C 
BRANCH 31 33
ATOM     33  CG1 ILE E 804     -12.577  18.625  29.853  1.00 63.94 LIG 0.00  C 
ATOM     34  CD1 ILE E 804     -12.085  17.557  28.929  1.00 63.94 LIG 0.01  C 
ENDBRANCH 31 33
ENDBRANCH 30 31
BRANCH 30 35
ATOM     35  C   ILE E 804     -14.752  17.564  32.401  1.00 65.71 LIG 0.24  C 
ATOM     36  N   ALA E 805     -15.487  17.018  31.437  1.00 67.46 LIG-0.35  N 
ATOM     37 H    ALA E 805     -15.493  17.290  30.621  1.00 67.46 LIG 0.16  HD
ATOM     38 O    ILE E 804     -14.773  17.156  33.568  1.00 65.35 LIG-0.27  OA
BRANCH 36 39
ATOM     39  CA  ALA E 805     -16.365  15.880  31.704  1.00 69.21 LIG 0.16  C 
ATOM     40  CB  ALA E 805     -17.563  15.906  30.750  1.00 68.65 LIG 0.04  C 
BRANCH 39 41
ATOM     41  C   ALA E 805     -15.620  14.553  31.573  1.00 70.07 LIG 0.22  C 
ATOM     42 O    ALA E 805     -14.667  14.504  30.763  1.00 70.08 LIG-0.29  OA
ENDBRANCH 39 41
ENDBRANCH 36 39
ENDBRANCH 30 35
ENDBRANCH 28 30
ENDBRANCH 24 26
ENDBRANCH 3 24
TORSDOF 17
ENDMDL
