MODEL 1
USER: ADFR SOLUTION from run 68
USER: SCORE 24.815160 LL:  -1.996 LR: -25.855 RR:   0.000 FEB: -18.994
USER: RMSD 0.645463
USER: SEED 67
USER: STATUS 1 or 2 clusters left
USER: GENES 25
USER: genes 0 Translation |==|  0.55050 0.53085 0.54151
USER: genes 1 Rotation |==|  0.49783 0.52097 0.49039 0.99946
USER: genes 2 Torsion [C]-CA--CB-[CG] |==|  0.48666
USER: genes 3 Torsion [CA]-CB--CG-[CD] |==|  0.57398
USER: genes 4 Torsion [CB]-CG--CD-[CE] |==|  0.39444
USER: genes 5 Torsion [CG]-CD--CE-[NZ] |==|  0.25905
USER: genes 6 Torsion [CD]-CE--NZ-[HZ2] |==|  0.85143
USER: genes 7 Torsion [N]-CA--C-[N] |==|  0.34933
USER: genes 8 Torsion [C]-N--CA-[CB] |==|  0.41892
USER: genes 9 Torsion [N]-CA--CB-[CG] |==|  0.62051
USER: genes 10 Torsion [CA]-CB--CG-[CD] |==|  0.68375
USER: genes 11 Torsion [CB]-CG--CD-[CE] |==|  0.51732
USER: genes 12 Torsion [CG]-CD--CE-[NZ] |==|  0.79326
USER: genes 13 Torsion [CD]-CE--NZ-[HZ1] |==|  0.38197
USER: genes 14 Torsion [N]-CA--C-[N] |==|  0.36685
USER: genes 15 Torsion [C]-N--CA-[CB] |==|  0.41957
USER: genes 16 Torsion [N]-CA--C-[OXT] |==|  0.89913
USER: genes 17 Torsion [CB]-CA--N-[C] |==|  0.43269
USER: genes 18 Torsion [N]-C--CA-[N] |==|  0.37522
USER: genes 19 Torsion [C]-CA--CB-[CG] |==|  0.80566
USER: genes 20 Torsion [CA]-CB--CG-[CD] |==|  0.52128
USER: genes 21 Torsion [CB]-CG--CD-[CE] |==|  0.18508
USER: genes 22 Torsion [CG]-CD--CE-[NZ] |==|  0.11957
USER: genes 23 Torsion [CD]-CE--NZ-[HZ3] |==|  0.24424
USER: genes 24 Torsion [C]-CA--N-[H2] |==|  0.75398
ROOT
ATOM      1  CA  LYS B   2       4.105  20.706  16.145  1.00  9.55 LIG 0.18  C 
ENDROOT
BRANCH 1 2
ATOM      2  CB  LYS B   2       4.607  22.146  16.538  1.00  7.13 LIG 0.04  C 
BRANCH 2 3
ATOM      3  CG  LYS B   2       5.851  22.003  17.428  1.00  9.06 LIG 0.00  C 
BRANCH 3 4
ATOM      4  CD  LYS B   2       6.216  23.030  18.401  1.00 20.34 LIG 0.03  C 
BRANCH 4 5
ATOM      5  CE  LYS B   2       6.793  22.588  19.763  1.00 19.41 LIG 0.23  C 
BRANCH 5 6
ATOM      6  NZ  LYS B   2       8.271  22.541  19.775  1.00 27.89 LIG-0.08  N 
ATOM      7 HZ2  LYS B   2       8.558  22.036  19.100  1.00 27.89 LIG 0.27  HD
ATOM      8 HZ3  LYS B   2       8.596  23.365  19.687  1.00 27.89 LIG 0.27  HD
ATOM      9 HZ1  LYS B   2       8.551  22.193  20.545  1.00 27.89 LIG 0.27  HD
ENDBRANCH 5 6
ENDBRANCH 4 5
ENDBRANCH 3 4
ENDBRANCH 2 3
ENDBRANCH 1 2
BRANCH 1 10
ATOM     10  C   LYS B   2       2.814  20.733  15.363  1.00  8.95 LIG 0.24  C 
ATOM     11 O    LYS B   2       2.728  21.110  14.179  1.00  5.49 LIG-0.27  OA
ATOM     12  N   LYS B   3       1.696  20.238  15.977  1.00  9.84 LIG-0.35  N 
ATOM     13 H    LYS B   3       1.677  19.966  16.793  1.00  9.84 LIG 0.16  HD
BRANCH 12 14
ATOM     14  CA  LYS B   3       0.455  20.135  15.297  1.00  6.67 LIG 0.18  C 
BRANCH 14 15
ATOM     15  CB  LYS B   3      -0.445  18.942  15.845  1.00  5.08 LIG 0.04  C 
BRANCH 15 16
ATOM     16  CG  LYS B   3      -0.974  18.319  14.502  1.00 11.87 LIG 0.00  C 
BRANCH 16 17
ATOM     17  CD  LYS B   3      -2.438  18.498  14.378  1.00 16.50 LIG 0.03  C 
BRANCH 17 18
ATOM     18  CE  LYS B   3      -2.990  17.769  13.159  1.00 11.29 LIG 0.23  C 
BRANCH 18 19
ATOM     19  NZ  LYS B   3      -2.655  18.471  11.900  1.00 14.74 LIG-0.08  N 
ATOM     20 HZ1  LYS B   3      -2.405  17.877  11.286  1.00 14.74 LIG 0.27  HD
ATOM     21 HZ2  LYS B   3      -3.369  18.916  11.608  1.00 14.74 LIG 0.27  HD
ATOM     22 HZ3  LYS B   3      -1.989  19.043  12.047  1.00 14.74 LIG 0.27  HD
ENDBRANCH 18 19
ENDBRANCH 17 18
ENDBRANCH 16 17
ENDBRANCH 15 16
ENDBRANCH 14 15
BRANCH 14 23
ATOM     23  C   LYS B   3      -0.409  21.386  15.495  1.00 11.62 LIG 0.24  C 
ATOM     24  N   ALA B   4      -0.934  21.883  14.385  1.00 11.21 LIG-0.34  N 
ATOM     25 H    ALA B   4      -0.781  21.584  13.593  1.00 11.21 LIG 0.16  HD
ATOM     26 O    LYS B   3      -0.607  21.839  16.640  1.00  6.98 LIG-0.27  OA
BRANCH 24 27
ATOM     27  CA  ALA B   4      -1.857  23.039  14.455  1.00 15.60 LIG 0.18  C 
ATOM     28  CB  ALA B   4      -1.781  23.877  13.174  1.00  9.87 LIG 0.04  C 
BRANCH 27 29
ATOM     29  C   ALA B   4      -3.310  22.514  14.622  1.00 11.70 LIG 0.20  C 
ATOM     30 OXT  ALA B   4      -3.535  21.467  13.994  1.00 11.31 LIG-0.65  OA
ATOM     31 O    ALA B   4      -4.160  23.155  15.275  1.00 13.41 LIG-0.65  OA
ENDBRANCH 27 29
ENDBRANCH 24 27
ENDBRANCH 14 23
ENDBRANCH 12 14
ENDBRANCH 1 10
BRANCH 1 32
ATOM     32  N   LYS B   2       5.159  20.016  15.387  1.00  9.26 LIG-0.35  N 
ATOM     33 H    LYS B   2       5.699  20.563  15.001  1.00  9.26 LIG 0.16  HD
ATOM     34  C   LYS B   1       5.300  18.712  15.284  1.00  9.39 LIG 0.25  C 
ATOM     35 O    LYS B   1       4.589  17.904  15.923  1.00 10.41 LIG-0.27  OA
BRANCH 34 36
ATOM     36  CA  LYS B   1       6.411  18.144  14.406  1.00 10.02 LIG 0.27  C 
BRANCH 36 37
ATOM     37  CB  LYS B   1       5.874  17.650  13.038  1.00  9.48 LIG 0.04  C 
BRANCH 37 38
ATOM     38  CG  LYS B   1       5.015  16.410  13.076  1.00 17.99 LIG 0.00  C 
BRANCH 38 39
ATOM     39  CD  LYS B   1       4.660  15.851  11.689  1.00 11.58 LIG 0.03  C 
BRANCH 39 40
ATOM     40  CE  LYS B   1       5.881  15.312  10.937  1.00 12.42 LIG 0.23  C 
BRANCH 40 41
ATOM     41  NZ  LYS B   1       6.715  14.532  11.884  1.00 15.26 LIG-0.08  N 
ATOM     42 HZ3  LYS B   1       6.435  13.688  11.900  1.00 15.26 LIG 0.27  HD
ATOM     43 HZ2  LYS B   1       6.646  14.883  12.699  1.00 15.26 LIG 0.27  HD
ATOM     44 HZ1  LYS B   1       7.565  14.557  11.622  1.00 15.26 LIG 0.27  HD
ENDBRANCH 40 41
ENDBRANCH 39 40
ENDBRANCH 38 39
ENDBRANCH 37 38
ENDBRANCH 36 37
BRANCH 36 45
ATOM     45  N   LYS B   1       7.090  17.046  15.144  1.00  7.61 LIG-0.07  N 
ATOM     46 H1   LYS B   1       7.419  16.457  14.563  1.00  7.61 LIG 0.28  HD
ATOM     47 H2   LYS B   1       7.753  17.382  15.633  1.00  7.61 LIG 0.28  HD
ATOM     48 H3   LYS B   1       6.505  16.640  15.677  1.00  7.61 LIG 0.28  HD
ENDBRANCH 36 45
ENDBRANCH 34 36
ENDBRANCH 1 32
TORSDOF 23
ENDMDL
