MODEL 1
USER: ADFR SOLUTION from run 4
USER: SCORE 17.979026 LL:  -1.674 LR: -17.048 RR:   0.000 FEB: -11.977
USER: RMSD 1.406785
USER: SEED 335342
USER: STATUS no improvement in best 1 clusters for 5 generations
USER: GENES 19
USER: genes 0 Translation |==|  0.53014 0.50003 0.52151
USER: genes 1 Rotation |==|  0.51984 0.52487 0.57241 0.99371
USER: genes 2 Torsion [N]-CA--C-[N] |==|  0.54377
USER: genes 3 Torsion [C]-N--CA-[C] |==|  0.66667
USER: genes 4 Torsion [N]-CA--C-[N] |==|  0.43594
USER: genes 5 Torsion [C]-N--CA-[CB] |==|  0.38571
USER: genes 6 Torsion [N]-CA--C-[O] |==|  0.62485
USER: genes 7 Torsion [CA]-C--O-[HO] |==|  0.89147
USER: genes 8 Torsion [N]-CA--CB-[CG] |==|  0.74928
USER: genes 9 Torsion [CA]-CB--CG-[OD1] |==|  0.97331
USER: genes 10 Torsion [N]-CA--CB-[CG1] |==|  0.89537
USER: genes 11 Torsion [C]-CA--CB-[CG] |==|  0.64222
USER: genes 12 Torsion [CA]-CB--CG-[CD] |==|  0.24925
USER: genes 13 Torsion [CB]-CG--CD-[OE1] |==|  0.43160
USER: genes 14 Torsion [C]-CA--N-[C] |==|  0.65060
USER: genes 15 Torsion [N]-C--CA-[N] |==|  0.36041
USER: genes 16 Torsion [C]-CA--N-[C] |==|  0.76265
USER: genes 17 Torsion [C]-CA--CB-[CG] |==|  0.55350
USER: genes 18 Torsion [CA]-CB--CG-[OD1] |==|  0.76147
ROOT
ATOM      1  CA  GLU C 503      40.514  95.451  22.535  1.00 22.23 LIG 0.18  C 
ENDROOT
BRANCH 1 2
ATOM      2  C   GLU C 503      39.914  95.536  21.135  1.00 22.23 LIG 0.24  C 
ATOM      3 O    GLU C 503      40.004  96.580  20.494  1.00 30.39 LIG-0.27  OA
ATOM      4  N   VAL C 504      39.303  94.450  20.665  1.00 14.81 LIG-0.35  N 
ATOM      5 H    VAL C 504      39.224  93.718  21.107  1.00 14.81 LIG 0.16  HD
BRANCH 4 6
ATOM      6  CA  VAL C 504      38.705  94.414  19.328  1.00 14.81 LIG 0.18  C 
BRANCH 6 7
ATOM      7  C   VAL C 504      37.200  94.129  19.331  1.00 14.81 LIG 0.26  C 
ATOM      8 O    VAL C 504      36.681  93.549  20.281  1.00 11.58 LIG-0.27  OA
ATOM      9 N    ASJ C 505      36.516  94.538  18.261  1.00  2.62 LIG-0.25  NA
BRANCH 9 10
ATOM     10  CA  ASJ C 505      35.066  94.359  18.094  1.00  2.62 LIG 0.15  C 
BRANCH 10 11
ATOM     11  C   ASJ C 505      34.735  93.195  17.176  1.00  2.62 LIG 0.17  C 
BRANCH 11 12
ATOM     12 O    ASJ C 505      33.710  93.593  16.254  1.00 19.56 LIG-0.39  OA
ATOM     13 HO   ASJ C 505      33.148  94.075  16.651  1.00 19.56 LIG 0.21  HD
ENDBRANCH 11 12
ENDBRANCH 10 11
BRANCH 10 14
ATOM     14  CB  ASJ C 505      34.438  95.608  17.490  1.00 12.55 LIG 0.14  C 
BRANCH 14 15
ATOM     15  CG  ASJ C 505      33.987  96.586  18.521  1.00 14.75 LIG 0.17  C 
ATOM     16 OD1  ASJ C 505      33.985  96.240  19.720  1.00 17.98 LIG-0.65  OA
ATOM     17 OD2  ASJ C 505      33.608  97.700  18.125  1.00 18.38 LIG-0.65  OA
ENDBRANCH 14 15
ENDBRANCH 10 14
ENDBRANCH 9 10
ENDBRANCH 6 7
BRANCH 6 18
ATOM     18  CB  VAL C 504      39.412  93.381  18.438  1.00 11.58 LIG 0.01  C 
ATOM     19  CG2 VAL C 504      38.822  91.998  18.672  1.00 11.58 LIG 0.01  C 
ATOM     20  CG1 VAL C 504      40.908  93.376  18.716  1.00 11.58 LIG 0.01  C 
ENDBRANCH 6 18
ENDBRANCH 4 6
ENDBRANCH 1 2
BRANCH 1 21
ATOM     21  CB  GLU C 503      39.539  94.753  23.484  1.00 30.39 LIG 0.04  C 
BRANCH 21 22
ATOM     22  CG  GLU C 503      39.275  95.527  24.767  1.00 30.39 LIG 0.12  C 
BRANCH 22 23
ATOM     23  CD  GLU C 503      38.110  96.493  24.660  1.00 30.39 LIG 0.17  C 
ATOM     24 OE1  GLU C 503      37.497  96.834  25.693  1.00 30.39 LIG-0.65  OA
ATOM     25 OE2  GLU C 503      37.815  96.929  23.532  1.00 30.39 LIG-0.65  OA
ENDBRANCH 22 23
ENDBRANCH 21 22
ENDBRANCH 1 21
BRANCH 1 26
ATOM     26  N   GLU C 503      40.786  96.808  22.998  1.00 22.23 LIG-0.35  N 
ATOM     27 H    GLU C 503      40.099  97.325  22.962  1.00 22.23 LIG 0.16  HD
ATOM     28  C   ASP C 502      41.976  97.215  23.434  1.00 15.66 LIG 0.24  C 
ATOM     29 O    ASP C 502      42.976  96.487  23.480  1.00 17.69 LIG-0.27  OA
BRANCH 28 30
ATOM     30  CA  ASP C 502      42.055  98.678  23.868  1.00 16.73 LIG 0.19  C 
BRANCH 30 31
ATOM     31  N   ASP C 502      42.652  98.850  25.183  1.00 28.47 LIG-0.35  N 
ATOM     32 H    ASP C 502      43.497  99.013  25.168  1.00 28.47 LIG 0.16  HD
ATOM     33  C   ACE C 501      41.939  98.760  26.299  1.00  7.47 LIG 0.21  C 
ATOM     34 O    ACE C 501      40.734  98.506  26.311  1.00 12.06 LIG-0.27  OA
ATOM     35  CH3 ACE C 501      42.688  98.976  27.599  1.00  7.47 LIG 0.12  C 
ENDBRANCH 30 31
BRANCH 30 36
ATOM     36  CB  ASP C 502      42.824  99.500  22.829  1.00 14.36 LIG 0.15  C 
BRANCH 36 37
ATOM     37  CG  ASP C 502      43.344 100.819  23.387  1.00 17.50 LIG 0.17  C 
ATOM     38 OD1  ASP C 502      42.601 101.823  23.385  1.00 20.94 LIG-0.65  OA
ATOM     39 OD2  ASP C 502      44.511 100.858  23.816  1.00 19.93 LIG-0.65  OA
ENDBRANCH 36 37
ENDBRANCH 30 36
ENDBRANCH 28 30
ENDBRANCH 1 26
TORSDOF 17
ENDMDL
