MODEL 1
USER: ADFR SOLUTION from run 37
USER: SCORE 11.743974 LL:  -2.241 LR:  -9.693 RR:   0.000 FEB:  -6.710
USER: RMSD 1.733660
USER: SEED 36
USER: STATUS no improvement in best 2 clusters for 5 generations
USER: GENES 12
USER: genes 0 Translation |==|  0.48240 0.50387 0.51046
USER: genes 1 Rotation |==|  0.41470 0.46725 0.57718 0.98548
USER: genes 2 Torsion [C]-CA--N-[C] |==|  0.71687
USER: genes 3 Torsion [N]-C--CA-[N] |==|  0.24566
USER: genes 4 Torsion [C]-CA--N-[H1] |==|  0.56206
USER: genes 5 Torsion [N]-CA--C-[N] |==|  0.30160
USER: genes 6 Torsion [C]-N--CA-[CB] |==|  0.33017
USER: genes 7 Torsion [N]-CA--CB-[CG] |==|  0.90352
USER: genes 8 Torsion [CA]-CB--CG-[CD2] |==|  0.71018
USER: genes 9 Torsion [N]-CA--C-[OXT] |==|  0.51339
USER: genes 10 Torsion [N]-CA--CB-[CG2] |==|  0.44437
USER: genes 11 Torsion [CA]-CB--CG1-[CD1] |==|  0.23482
ROOT
ATOM      1  CA  ILE B   2      75.542  46.946  17.174  1.00 64.17 LIG 0.18  C 
ENDROOT
BRANCH 1 2
ATOM      2  N   ILE B   2      74.706  47.316  16.038  1.00 64.56 LIG-0.35  N 
ATOM      3  C   ALA B   1      75.175  47.316  14.794  1.00 64.53 LIG 0.25  C 
ATOM      4 O    ALA B   1      76.332  46.999  14.514  1.00 64.21 LIG-0.27  OA
ATOM      5 H    ILE B   2      73.900  47.530  16.247  1.00 64.56 LIG 0.16  HD
BRANCH 3 6
ATOM      6  CA  ALA B   1      74.186  47.732  13.704  1.00 64.34 LIG 0.27  C 
ATOM      7  CB  ALA B   1      74.511  47.012  12.399  1.00 65.15 LIG 0.05  C 
BRANCH 6 8
ATOM      8  N   ALA B   1      74.195  49.207  13.485  1.00 63.44 LIG-0.07  N 
ATOM      9 H1   ALA B   1      73.426  49.456  13.111  1.00 63.44 LIG 0.28  HD
ATOM     10 H2   ALA B   1      74.294  49.622  14.266  1.00 63.44 LIG 0.28  HD
ATOM     11 H3   ALA B   1      74.870  49.423  12.946  1.00 63.44 LIG 0.28  HD
ENDBRANCH 6 8
ENDBRANCH 3 6
ENDBRANCH 1 2
BRANCH 1 12
ATOM     12  C   ILE B   2      75.247  45.525  17.643  1.00 63.93 LIG 0.24  C 
ATOM     13  N   HIS B   3      76.183  44.617  17.387  1.00 63.34 LIG-0.34  N 
ATOM     14 H    HIS B   3      76.922  44.787  16.982  1.00 63.34 LIG 0.16  HD
ATOM     15 O    ILE B   2      74.195  45.258  18.227  1.00 63.64 LIG-0.27  OA
BRANCH 13 16
ATOM     16  CA  HIS B   3      76.016  43.227  17.790  1.00 63.18 LIG 0.19  C 
BRANCH 16 17
ATOM     17  CB  HIS B   3      76.027  42.313  16.561  1.00 62.24 LIG 0.10  C 
BRANCH 17 18
ATOM     18  CG  HIS B   3      75.397  42.922  15.347  1.00 63.21 LIG 0.05  A 
ATOM     19  CD2 HIS B   3      74.195  42.705  14.760  1.00 62.69 LIG 0.12  A 
ATOM     20  NE2 HIS B   3      74.121  43.533  13.667  1.00 63.05 LIG-0.36  N 
ATOM     21 HE2  HIS B   3      73.456  43.586  13.124  1.00 63.05 LIG 0.17  HD
ATOM     22  CE1 HIS B   3      75.237  44.236  13.584  1.00 63.79 LIG 0.21  A 
ATOM     23 ND1  HIS B   3      76.024  43.887  14.587  1.00 63.44 LIG-0.25  NA
ENDBRANCH 17 18
ENDBRANCH 16 17
BRANCH 16 24
ATOM     24  C   HIS B   3      77.136  42.823  18.740  1.00 63.55 LIG 0.20  C 
ATOM     25 OXT  HIS B   3      77.195  41.633  19.109  1.00 62.89 LIG-0.65  OA
ATOM     26 O    HIS B   3      77.947  43.703  19.101  1.00 64.85 LIG-0.65  OA
ENDBRANCH 16 24
ENDBRANCH 13 16
ENDBRANCH 1 12
BRANCH 1 27
ATOM     27  CB  ILE B   2      75.327  47.910  18.357  1.00 64.73 LIG 0.01  C 
ATOM     28  CG2 ILE B   2      75.795  47.259  19.656  1.00 64.62 LIG 0.01  C 
BRANCH 27 29
ATOM     29  CG1 ILE B   2      76.083  49.216  18.101  1.00 64.82 LIG 0.00  C 
ATOM     30  CD1 ILE B   2      75.321  50.213  17.259  1.00 66.82 LIG 0.01  C 
ENDBRANCH 27 29
ENDBRANCH 1 27
TORSDOF 10
ENDMDL
MODEL 2
USER: ADFR SOLUTION from run 124
USER: SCORE 10.685925 LL:  -1.872 LR:  -9.101 RR:   0.000 FEB:  -6.118
USER: RMSD 1.343768
USER: SEED 123
USER: STATUS no improvement in best 2 clusters for 5 generations
USER: GENES 12
USER: genes 0 Translation |==|  0.48913 0.50717 0.56133
USER: genes 1 Rotation |==|  0.53401 0.34550 0.52899 0.97343
USER: genes 2 Torsion [C]-CA--N-[C] |==|  0.63889
USER: genes 3 Torsion [N]-C--CA-[N] |==|  0.97790
USER: genes 4 Torsion [C]-CA--N-[H1] |==|  0.27632
USER: genes 5 Torsion [N]-CA--C-[N] |==|  0.30009
USER: genes 6 Torsion [C]-N--CA-[CB] |==|  0.32262
USER: genes 7 Torsion [N]-CA--CB-[CG] |==|  0.74678
USER: genes 8 Torsion [CA]-CB--CG-[CD2] |==|  0.78807
USER: genes 9 Torsion [N]-CA--C-[OXT] |==|  0.46761
USER: genes 10 Torsion [N]-CA--CB-[CG2] |==|  0.46414
USER: genes 11 Torsion [CA]-CB--CG1-[CD1] |==|  0.65434
ROOT
ATOM      1  CA  ILE B   2      75.744  47.045  18.700  1.00 64.17 LIG 0.18  C 
ENDROOT
BRANCH 1 2
ATOM      2  N   ILE B   2      75.451  48.071  17.707  1.00 64.56 LIG-0.35  N 
ATOM      3  C   ALA B   1      76.357  48.976  17.346  1.00 64.53 LIG 0.25  C 
ATOM      4 O    ALA B   1      77.498  49.005  17.812  1.00 64.21 LIG-0.27  OA
ATOM      5 H    ILE B   2      74.655  48.036  17.385  1.00 64.56 LIG 0.16  HD
BRANCH 3 6
ATOM      6  CA  ALA B   1      75.908  49.994  16.297  1.00 64.34 LIG 0.27  C 
ATOM      7  CB  ALA B   1      75.874  51.392  16.906  1.00 65.15 LIG 0.05  C 
BRANCH 6 8
ATOM      8  N   ALA B   1      74.570  49.653  15.735  1.00 63.44 LIG-0.07  N 
ATOM      9 H1   ALA B   1      73.946  50.146  16.134  1.00 63.44 LIG 0.28  HD
ATOM     10 H2   ALA B   1      74.565  49.818  14.860  1.00 63.44 LIG 0.28  HD
ATOM     11 H3   ALA B   1      74.401  48.791  15.875  1.00 63.44 LIG 0.28  HD
ENDBRANCH 6 8
ENDBRANCH 3 6
ENDBRANCH 1 2
BRANCH 1 12
ATOM     12  C   ILE B   2      75.359  45.657  18.197  1.00 63.93 LIG 0.24  C 
ATOM     13  N   HIS B   3      76.364  44.848  17.883  1.00 63.34 LIG-0.34  N 
ATOM     14 H    HIS B   3      77.195  45.062  17.946  1.00 63.34 LIG 0.16  HD
ATOM     15 O    ILE B   2      74.176  45.327  18.099  1.00 63.64 LIG-0.27  OA
BRANCH 13 16
ATOM     16  CA  HIS B   3      76.122  43.497  17.395  1.00 63.18 LIG 0.19  C 
BRANCH 16 17
ATOM     17  CB  HIS B   3      76.634  43.350  15.960  1.00 62.24 LIG 0.10  C 
BRANCH 17 18
ATOM     18  CG  HIS B   3      75.607  43.657  14.914  1.00 63.21 LIG 0.05  A 
ATOM     19  CD2 HIS B   3      74.552  42.938  14.461  1.00 62.69 LIG 0.12  A 
ATOM     20  NE2 HIS B   3      73.934  43.690  13.492  1.00 63.05 LIG-0.36  N 
ATOM     21 HE2  HIS B   3      73.237  43.456  13.046  1.00 63.05 LIG 0.17  HD
ATOM     22  CE1 HIS B   3      74.585  44.832  13.354  1.00 63.79 LIG 0.21  A 
ATOM     23 ND1  HIS B   3      75.599  44.838  14.202  1.00 63.44 LIG-0.25  NA
ENDBRANCH 17 18
ENDBRANCH 16 17
BRANCH 16 24
ATOM     24  C   HIS B   3      76.820  42.485  18.295  1.00 63.55 LIG 0.20  C 
ATOM     25 OXT  HIS B   3      76.538  41.279  18.155  1.00 62.89 LIG-0.65  OA
ATOM     26 O    HIS B   3      77.647  42.913  19.130  1.00 64.85 LIG-0.65  OA
ENDBRANCH 16 24
ENDBRANCH 13 16
ENDBRANCH 1 12
BRANCH 1 27
ATOM     27  CB  ILE B   2      74.991  47.319  20.017  1.00 64.73 LIG 0.01  C 
ATOM     28  CG2 ILE B   2      75.051  46.089  20.920  1.00 64.62 LIG 0.01  C 
BRANCH 27 29
ATOM     29  CG1 ILE B   2      75.602  48.535  20.716  1.00 64.82 LIG 0.00  C 
ATOM     30  CD1 ILE B   2      76.055  48.269  22.133  1.00 66.82 LIG 0.01  C 
ENDBRANCH 27 29
ENDBRANCH 1 27
TORSDOF 10
ENDMDL
