MODEL 1
USER: ADFR SOLUTION from run 122
USER: SCORE 19.301687 LL:  -5.128 LR: -14.861 RR:   0.000 FEB:  -8.299
USER: RMSD 1.766870
USER: SEED 121
USER: STATUS 1 or 2 clusters left
USER: GENES 24
USER: genes 0 Translation |==|  0.52822 0.49800 0.48680
USER: genes 1 Rotation |==|  0.44482 0.51945 0.49662 0.99655
USER: genes 2 Torsion [N]-CA--C-[N] |==|  0.34438
USER: genes 3 Torsion [C]-N--CA-[C] |==|  0.64610
USER: genes 4 Torsion [N]-CA--C-[N] |==|  0.90414
USER: genes 5 Torsion [C]-N--CA-[CB] |==|  0.86074
USER: genes 6 Torsion [N]-CA--C-[OXT] |==|  0.96106
USER: genes 7 Torsion [N]-CA--CB-[CG] |==|  0.83077
USER: genes 8 Torsion [CA]-CB--CG-[CD2] |==|  0.83974
USER: genes 9 Torsion [N]-CA--CB-[CG2] |==|  0.52532
USER: genes 10 Torsion [CA]-CB--CG1-[CD1] |==|  0.77572
USER: genes 11 Torsion [C]-CA--CB-[CG] |==|  0.23999
USER: genes 12 Torsion [CA]-CB--CG-[CD] |==|  0.64134
USER: genes 13 Torsion [CB]-CG--CD-[OE1] |==|  0.68755
USER: genes 14 Torsion [C]-CA--N-[C] |==|  0.74341
USER: genes 15 Torsion [N]-C--CA-[N] |==|  0.32222
USER: genes 16 Torsion [C]-CA--CB-[CG] |==|  0.47942
USER: genes 17 Torsion [CA]-CB--CG-[OD2] |==|  0.27293
USER: genes 18 Torsion [C]-CA--N-[C] |==|  0.79435
USER: genes 19 Torsion [N]-C--CA-[N] |==|  0.46003
USER: genes 20 Torsion [C]-CA--CB-[CG] |==|  0.87069
USER: genes 21 Torsion [CA]-CB--CG-[CD1] |==|  0.27284
USER: genes 22 Torsion [CE1]-CZ--OH-[HH] |==|  0.21458
USER: genes 23 Torsion [C]-CA--N-[H2] |==|  0.99538
ROOT
ATOM      1  CA  GLN I  61      18.966  17.980   6.584  1.00 12.54 LIG 0.18  C 
ENDROOT
BRANCH 1 2
ATOM      2  C   GLN I  61      18.241  18.675   5.401  1.00 13.13 LIG 0.24  C 
ATOM      3  N   ILE I  62      16.916  18.667   5.433  1.00 10.34 LIG-0.35  N 
ATOM      4 H    ILE I  62      16.447  18.319   6.064  1.00 10.34 LIG 0.16  HD
ATOM      5 O    GLN I  61      18.872  19.212   4.478  1.00 13.36 LIG-0.27  OA
BRANCH 3 6
ATOM      6  CA  ILE I  62      16.152  19.268   4.365  1.00 10.31 LIG 0.18  C 
BRANCH 6 7
ATOM      7  C   ILE I  62      15.161  20.249   4.977  1.00 12.98 LIG 0.24  C 
ATOM      8 O    ILE I  62      14.852  21.311   4.391  1.00 12.64 LIG-0.27  OA
ATOM      9  N   LEU I  63      14.666  19.893   6.164  1.00 10.93 LIG-0.34  N 
ATOM     10 H    LEU I  63      14.878  19.161   6.563  1.00 10.93 LIG 0.16  HD
BRANCH 9 11
ATOM     11  CA  LEU I  63      13.699  20.723   6.916  1.00 11.08 LIG 0.18  C 
BRANCH 11 12
ATOM     12  C   LEU I  63      12.312  20.726   6.261  1.00 13.00 LIG 0.20  C 
ATOM     13 O    LEU I  63      11.347  21.165   6.925  1.00 13.41 LIG-0.65  OA
ATOM     14 OXT  LEU I  63      12.200  20.295   5.089  1.00 16.16 LIG-0.65  OA
ENDBRANCH 11 12
BRANCH 11 15
ATOM     15  CB  LEU I  63      14.209  22.167   7.014  1.00 10.85 LIG 0.04  C 
BRANCH 15 16
ATOM     16  CG  LEU I  63      15.525  22.282   7.735  1.00 12.24 LIG-0.02  C 
ATOM     17  CD2 LEU I  63      15.351  21.685   9.138  1.00 14.99 LIG 0.01  C 
ATOM     18  CD1 LEU I  63      15.960  23.721   7.774  1.00 14.56 LIG 0.01  C 
ENDBRANCH 15 16
ENDBRANCH 11 15
ENDBRANCH 9 11
ENDBRANCH 6 7
BRANCH 6 19
ATOM     19  CB  ILE I  62      15.384  18.188   3.548  1.00 10.03 LIG 0.01  C 
ATOM     20  CG2 ILE I  62      14.773  18.811   2.304  1.00 11.01 LIG 0.01  C 
BRANCH 19 21
ATOM     21  CG1 ILE I  62      16.326  17.044   3.146  1.00 11.14 LIG 0.00  C 
ATOM     22  CD1 ILE I  62      17.178  17.323   1.945  1.00 11.65 LIG 0.01  C 
ENDBRANCH 19 21
ENDBRANCH 6 19
ENDBRANCH 3 6
ENDBRANCH 1 2
BRANCH 1 23
ATOM     23  CB  GLN I  61      19.765  18.977   7.433  1.00 14.90 LIG 0.04  C 
BRANCH 23 24
ATOM     24  CG  GLN I  61      19.033  19.684   8.533  1.00 19.56 LIG 0.10  C 
BRANCH 24 25
ATOM     25  CD  GLN I  61      19.264  21.184   8.434  1.00 24.89 LIG 0.21  C 
ATOM     26 OE1  GLN I  61      19.917  21.781   9.302  1.00 26.12 LIG-0.27  OA
ATOM     27  NE2 GLN I  61      18.756  21.800   7.355  1.00 17.87 LIG-0.37  N 
ATOM     28 22HE GLN I  61      18.878  22.644   7.244  1.00 17.87 LIG 0.16  HD
ATOM     29 21HE GLN I  61      18.308  21.351   6.774  1.00 17.87 LIG 0.16  HD
ENDBRANCH 24 25
ENDBRANCH 23 24
ENDBRANCH 1 23
BRANCH 1 30
ATOM     30  N   GLN I  61      19.897  16.928   6.189  1.00 13.65 LIG-0.35  N 
ATOM     31  C   ASP I  60      19.540  15.655   6.104  1.00 18.68 LIG 0.24  C 
ATOM     32 O    ASP I  60      18.381  15.271   6.309  1.00 17.48 LIG-0.27  OA
ATOM     33 H    GLN I  61      20.692  17.210   6.018  1.00 13.65 LIG 0.16  HD
BRANCH 31 34
ATOM     34  CA  ASP I  60      20.667  14.666   5.739  1.00 21.07 LIG 0.19  C 
BRANCH 34 35
ATOM     35  CB  ASP I  60      20.292  13.805   4.518  1.00 25.87 LIG 0.15  C 
BRANCH 35 36
ATOM     36  CG  ASP I  60      21.453  12.918   3.990  1.00 31.63 LIG 0.17  C 
ATOM     37 OD2  ASP I  60      21.471  11.718   4.351  1.00 32.10 LIG-0.65  OA
ATOM     38 OD1  ASP I  60      22.310  13.380   3.195  1.00 34.51 LIG-0.65  OA
ENDBRANCH 35 36
ENDBRANCH 34 35
BRANCH 34 39
ATOM     39  N   ASP I  60      20.786  13.801   6.931  1.00 22.02 LIG-0.34  N 
ATOM     40  C   TYR I  59      21.349  14.212   8.077  1.00 29.44 LIG 0.25  C 
ATOM     41 O    TYR I  59      21.841  15.339   8.235  1.00 29.64 LIG-0.27  OA
ATOM     42 H    ASP I  60      20.462  13.012   6.821  1.00 22.02 LIG 0.16  HD
BRANCH 40 43
ATOM     43  CA  TYR I  59      21.395  13.203   9.229  1.00 32.26 LIG 0.28  C 
BRANCH 43 44
ATOM     44  CB  TYR I  59      19.990  13.024   9.832  1.00 35.10 LIG 0.08  C 
BRANCH 44 45
ATOM     45  CG  TYR I  59      19.276  14.341  10.087  1.00 39.87 LIG-0.06  A 
ATOM     46  CD1 TYR I  59      18.338  14.837   9.173  1.00 40.08 LIG 0.01  A 
ATOM     47  CE1 TYR I  59      17.746  16.087   9.343  1.00 40.68 LIG 0.04  A 
ATOM     48  CZ  TYR I  59      18.078  16.867  10.435  1.00 42.21 LIG 0.07  A 
ATOM     49  CE2 TYR I  59      19.003  16.403  11.373  1.00 42.84 LIG 0.04  A 
ATOM     50  CD2 TYR I  59      19.597  15.134  11.195  1.00 40.94 LIG 0.01  A 
BRANCH 48 51
ATOM     51 OH   TYR I  59      17.489  18.107  10.569  1.00 42.12 LIG-0.36  OA
ATOM     52 HH   TYR I  59      16.703  18.015  10.852  1.00 42.12 LIG 0.22  HD
ENDBRANCH 48 51
ENDBRANCH 44 45
ENDBRANCH 43 44
BRANCH 43 53
ATOM     53  N   TYR I  59      22.357  13.710  10.277  1.00 33.30 LIG-0.07  N 
ATOM     54 H1   TYR I  59      23.000  13.108  10.406  1.00 33.30 LIG 0.28  HD
ATOM     55 H2   TYR I  59      22.718  14.476  10.003  1.00 33.30 LIG 0.28  HD
ATOM     56 H3   TYR I  59      21.920  13.845  11.041  1.00 33.30 LIG 0.28  HD
ENDBRANCH 43 53
ENDBRANCH 40 43
ENDBRANCH 34 39
ENDBRANCH 31 34
ENDBRANCH 1 30
TORSDOF 22
ENDMDL
MODEL 2
USER: ADFR SOLUTION from run 83
USER: SCORE 17.141166 LL:  -4.833 LR: -13.060 RR:   0.000 FEB:  -6.497
USER: RMSD 1.912964
USER: SEED 82
USER: STATUS no improvement in best 2 clusters for 5 generations
USER: GENES 24
USER: genes 0 Translation |==|  0.52614 0.49246 0.47426
USER: genes 1 Rotation |==|  0.48589 0.58068 0.48939 0.99313
USER: genes 2 Torsion [N]-CA--C-[N] |==|  0.28045
USER: genes 3 Torsion [C]-N--CA-[C] |==|  0.61800
USER: genes 4 Torsion [N]-CA--C-[N] |==|  0.25997
USER: genes 5 Torsion [C]-N--CA-[CB] |==|  0.51289
USER: genes 6 Torsion [N]-CA--C-[OXT] |==|  0.95062
USER: genes 7 Torsion [N]-CA--CB-[CG] |==|  0.84475
USER: genes 8 Torsion [CA]-CB--CG-[CD2] |==|  0.75517
USER: genes 9 Torsion [N]-CA--CB-[CG2] |==|  0.54199
USER: genes 10 Torsion [CA]-CB--CG1-[CD1] |==|  0.76626
USER: genes 11 Torsion [C]-CA--CB-[CG] |==|  0.09337
USER: genes 12 Torsion [CA]-CB--CG-[CD] |==|  0.37389
USER: genes 13 Torsion [CB]-CG--CD-[OE1] |==|  0.87652
USER: genes 14 Torsion [C]-CA--N-[C] |==|  0.76012
USER: genes 15 Torsion [N]-C--CA-[N] |==|  0.37437
USER: genes 16 Torsion [C]-CA--CB-[CG] |==|  0.10783
USER: genes 17 Torsion [CA]-CB--CG-[OD2] |==|  0.09391
USER: genes 18 Torsion [C]-CA--N-[C] |==|  0.73948
USER: genes 19 Torsion [N]-C--CA-[N] |==|  0.44272
USER: genes 20 Torsion [C]-CA--CB-[CG] |==|  0.89159
USER: genes 21 Torsion [CA]-CB--CG-[CD1] |==|  0.27290
USER: genes 22 Torsion [CE1]-CZ--OH-[HH] |==|  0.87655
USER: genes 23 Torsion [C]-CA--N-[H2] |==|  0.98143
ROOT
ATOM      1  CA  GLN I  61      18.904  17.814   6.208  1.00 12.54 LIG 0.18  C 
ENDROOT
BRANCH 1 2
ATOM      2  C   GLN I  61      17.983  18.727   5.356  1.00 13.13 LIG 0.24  C 
ATOM      3  N   ILE I  62      16.690  18.439   5.369  1.00 10.34 LIG-0.35  N 
ATOM      4 H    ILE I  62      16.338  17.798   5.822  1.00 10.34 LIG 0.16  HD
ATOM      5 O    GLN I  61      18.437  19.679   4.704  1.00 13.36 LIG-0.27  OA
BRANCH 3 6
ATOM      6  CA  ILE I  62      15.756  19.217   4.588  1.00 10.31 LIG 0.18  C 
BRANCH 6 7
ATOM      7  C   ILE I  62      14.517  19.472   5.437  1.00 12.98 LIG 0.24  C 
ATOM      8 O    ILE I  62      13.574  18.649   5.473  1.00 12.64 LIG-0.27  OA
ATOM      9  N   LEU I  63      14.518  20.620   6.117  1.00 10.93 LIG-0.34  N 
ATOM     10 H    LEU I  63      15.168  21.182   6.091  1.00 10.93 LIG 0.16  HD
BRANCH 9 11
ATOM     11  CA  LEU I  63      13.397  21.043   6.985  1.00 11.08 LIG 0.18  C 
BRANCH 11 12
ATOM     12  C   LEU I  63      12.056  21.034   6.238  1.00 13.00 LIG 0.20  C 
ATOM     13 O    LEU I  63      11.004  21.040   6.916  1.00 13.41 LIG-0.65  OA
ATOM     14 OXT  LEU I  63      12.066  21.023   4.985  1.00 16.16 LIG-0.65  OA
ENDBRANCH 11 12
BRANCH 11 15
ATOM     15  CB  LEU I  63      13.655  22.455   7.529  1.00 10.85 LIG 0.04  C 
BRANCH 15 16
ATOM     16  CG  LEU I  63      14.963  22.575   8.264  1.00 12.24 LIG-0.02  C 
ATOM     17  CD2 LEU I  63      14.717  22.208   9.734  1.00 14.99 LIG 0.01  C 
ATOM     18  CD1 LEU I  63      15.511  23.966   8.103  1.00 14.56 LIG 0.01  C 
ENDBRANCH 15 16
ENDBRANCH 11 15
ENDBRANCH 9 11
ENDBRANCH 6 7
BRANCH 6 19
ATOM     19  CB  ILE I  62      15.353  18.469   3.284  1.00 10.03 LIG 0.01  C 
ATOM     20  CG2 ILE I  62      14.685  19.431   2.316  1.00 11.01 LIG 0.01  C 
BRANCH 19 21
ATOM     21  CG1 ILE I  62      16.586  17.839   2.621  1.00 11.14 LIG 0.00  C 
ATOM     22  CD1 ILE I  62      17.369  18.764   1.740  1.00 11.65 LIG 0.01  C 
ENDBRANCH 19 21
ENDBRANCH 6 19
ENDBRANCH 3 6
ENDBRANCH 1 2
BRANCH 1 23
ATOM     23  CB  GLN I  61      19.956  18.620   6.981  1.00 14.90 LIG 0.04  C 
BRANCH 23 24
ATOM     24  CG  GLN I  61      19.559  19.981   7.465  1.00 19.56 LIG 0.10  C 
BRANCH 24 25
ATOM     25  CD  GLN I  61      20.002  20.171   8.907  1.00 24.89 LIG 0.21  C 
ATOM     26 OE1  GLN I  61      19.828  19.273   9.745  1.00 26.12 LIG-0.27  OA
ATOM     27  NE2 GLN I  61      20.608  21.332   9.202  1.00 17.87 LIG-0.37  N 
ATOM     28 22HE GLN I  61      20.895  21.478   9.999  1.00 17.87 LIG 0.16  HD
ATOM     29 21HE GLN I  61      20.710  21.931   8.593  1.00 17.87 LIG 0.16  HD
ENDBRANCH 24 25
ENDBRANCH 23 24
ENDBRANCH 1 23
BRANCH 1 30
ATOM     30  N   GLN I  61      19.630  16.805   5.443  1.00 13.65 LIG-0.35  N 
ATOM     31  C   ASP I  60      19.112  15.620   5.154  1.00 18.68 LIG 0.24  C 
ATOM     32 O    ASP I  60      17.959  15.299   5.473  1.00 17.48 LIG-0.27  OA
ATOM     33 H    GLN I  61      20.418  17.049   5.200  1.00 13.65 LIG 0.16  HD
BRANCH 31 34
ATOM     34  CA  ASP I  60      20.042  14.648   4.399  1.00 21.07 LIG 0.19  C 
BRANCH 34 35
ATOM     35  CB  ASP I  60      19.617  14.487   2.926  1.00 25.87 LIG 0.15  C 
BRANCH 35 36
ATOM     36  CG  ASP I  60      19.133  15.804   2.261  1.00 31.63 LIG 0.17  C 
ATOM     37 OD2  ASP I  60      19.683  16.870   2.625  1.00 32.10 LIG-0.65  OA
ATOM     38 OD1  ASP I  60      18.256  15.790   1.360  1.00 34.51 LIG-0.65  OA
ENDBRANCH 35 36
ENDBRANCH 34 35
BRANCH 34 39
ATOM     39  N   ASP I  60      19.867  13.362   5.103  1.00 22.02 LIG-0.34  N 
ATOM     40  C   TYR I  59      20.671  12.961   6.098  1.00 29.44 LIG 0.25  C 
ATOM     41 O    TYR I  59      21.644  13.614   6.502  1.00 29.64 LIG-0.27  OA
ATOM     42 H    ASP I  60      19.204  12.896   4.815  1.00 22.02 LIG 0.16  HD
BRANCH 40 43
ATOM     43  CA  TYR I  59      20.361  11.602   6.737  1.00 32.26 LIG 0.28  C 
BRANCH 43 44
ATOM     44  CB  TYR I  59      19.200  11.742   7.739  1.00 35.10 LIG 0.08  C 
BRANCH 44 45
ATOM     45  CG  TYR I  59      19.259  13.027   8.548  1.00 39.87 LIG-0.06  A 
ATOM     46  CD1 TYR I  59      18.492  14.140   8.181  1.00 40.08 LIG 0.01  A 
ATOM     47  CE1 TYR I  59      18.606  15.355   8.854  1.00 40.68 LIG 0.04  A 
ATOM     48  CZ  TYR I  59      19.489  15.482   9.910  1.00 42.21 LIG 0.07  A 
ATOM     49  CE2 TYR I  59      20.265  14.392  10.310  1.00 42.84 LIG 0.04  A 
ATOM     50  CD2 TYR I  59      20.143  13.162   9.626  1.00 40.94 LIG 0.01  A 
BRANCH 48 51
ATOM     51 OH   TYR I  59      19.593  16.701  10.546  1.00 42.12 LIG-0.36  OA
ATOM     52 HH   TYR I  59      19.626  17.315   9.973  1.00 42.12 LIG 0.22  HD
ENDBRANCH 48 51
ENDBRANCH 44 45
ENDBRANCH 43 44
BRANCH 43 53
ATOM     53  N   TYR I  59      21.603  11.102   7.436  1.00 33.30 LIG-0.07  N 
ATOM     54 H1   TYR I  59      21.794  10.281   7.150  1.00 33.30 LIG 0.28  HD
ATOM     55 H2   TYR I  59      22.285  11.645   7.255  1.00 33.30 LIG 0.28  HD
ATOM     56 H3   TYR I  59      21.463  11.085   8.315  1.00 33.30 LIG 0.28  HD
ENDBRANCH 43 53
ENDBRANCH 40 43
ENDBRANCH 34 39
ENDBRANCH 31 34
ENDBRANCH 1 30
TORSDOF 22
ENDMDL
