MODEL 1
USER: ADFR SOLUTION from run 51
USER: SCORE 13.436438 LL:  -2.492 LR: -11.638 RR:   0.000 FEB:  -8.059
USER: RMSD 0.893058
USER: SEED 50
USER: STATUS no improvement in best 1 clusters for 5 generations
USER: GENES 14
USER: genes 0 Translation |==|  0.47934 0.54454 0.48261
USER: genes 1 Rotation |==|  0.54365 0.54479 0.47532 0.99546
USER: genes 2 Torsion [N]-C--CA-[N] |==|  0.43435
USER: genes 3 Torsion [C]-CA--CB-[CG] |==|  0.24592
USER: genes 4 Torsion [CA]-CB--CG-[CD1] |==|  0.42569
USER: genes 5 Torsion [C]-CA--N-[C] |==|  0.53610
USER: genes 6 Torsion [N]-C--CA-[N] |==|  0.53703
USER: genes 7 Torsion [C]-CA--N-[H3] |==|  0.28522
USER: genes 8 Torsion [C]-N--CA-[CB] |==|  0.49299
USER: genes 9 Torsion [N]-CA--C-[N] |==|  0.44156
USER: genes 10 Torsion [C]-N--CA-[C] |==|  0.71665
USER: genes 11 Torsion [N]-CA--C-[O] |==|  0.60861
USER: genes 12 Torsion [N]-CA--CB-[CG] |==|  0.75530
USER: genes 13 Torsion [CA]-CB--CG-[CD2] |==|  0.87759
ROOT
ATOM      1  C   LEU C 675      26.000   4.026  19.548  1.00 14.56 LIG 0.24  C 
ATOM      2 O    LEU C 675      26.816   4.088  20.488  0.66 14.97 LIG-0.27  OA
ATOM      3  N   ALA C 676      24.709   3.779  19.769  0.83 13.84 LIG-0.35  N 
ATOM      4 H    ALA C 676      24.135   3.733  19.130  0.83 13.84 LIG 0.16  HD
ENDROOT
BRANCH 1 5
ATOM      5  CA  LEU C 675      26.371   4.194  18.096  0.78 15.17 LIG 0.18  C 
BRANCH 5 6
ATOM      6  CB  LEU C 675      26.586   2.884  17.305  0.53 15.14 LIG 0.04  C 
BRANCH 6 7
ATOM      7  CG  LEU C 675      25.495   2.160  16.603  0.32 15.05 LIG-0.02  C 
ATOM      8  CD1 LEU C 675      25.957   1.321  15.410  0.18 15.17 LIG 0.01  C 
ATOM      9  CD2 LEU C 675      24.847   1.204  17.638  0.37 15.02 LIG 0.01  C 
ENDBRANCH 6 7
ENDBRANCH 5 6
BRANCH 5 10
ATOM     10  N   LEU C 675      27.577   4.965  17.884  0.88 15.36 LIG-0.35  N 
ATOM     11 H    LEU C 675      28.016   5.071  18.616  0.88 15.36 LIG 0.16  HD
ATOM     12  C   ALA C 674      28.024   5.478  16.745  0.61 16.05 LIG 0.25  C 
ATOM     13 O    ALA C 674      27.370   5.420  15.697  0.70 15.91 LIG-0.27  OA
BRANCH 12 14
ATOM     14  CA  ALA C 674      29.369   6.157  16.882  0.67 16.10 LIG 0.27  C 
ATOM     15  CB  ALA C 674      29.600   6.814  18.202  0.67 16.22 LIG 0.05  C 
BRANCH 14 16
ATOM     16  N   ALA C 674      29.746   6.989  15.742  0.74 16.71 LIG-0.07  N 
ATOM     17 H1   ALA C 674      30.604   6.855  15.547  0.74 16.71 LIG 0.28  HD
ATOM     18 H2   ALA C 674      29.245   6.775  15.038  0.74 16.71 LIG 0.28  HD
ATOM     19 H3   ALA C 674      29.620   7.847  15.945  0.74 16.71 LIG 0.28  HD
ENDBRANCH 14 16
ENDBRANCH 12 14
ENDBRANCH 5 10
ENDBRANCH 1 5
BRANCH 3 20
ATOM     20  CA  ALA C 676      24.109   3.560  21.092  1.00 13.04 LIG 0.17  C 
ATOM     21  CB  ALA C 676      22.612   3.370  20.973  0.89 13.68 LIG 0.04  C 
BRANCH 20 22
ATOM     22  C   ALA C 676      24.828   2.469  21.852  0.69 12.60 LIG 0.24  C 
ATOM     23 O    ALA C 676      25.584   1.646  21.294  0.52 12.22 LIG-0.27  OA
ATOM     24  N   LEU C 677      24.654   2.502  23.179  0.89 12.12 LIG-0.34  N 
ATOM     25 H    LEU C 677      24.139   3.068  23.574  0.89 12.12 LIG 0.16  HD
BRANCH 24 26
ATOM     26  CA  LEU C 677      25.318   1.583  24.084  0.93 11.78 LIG 0.18  C 
BRANCH 26 27
ATOM     27  C   LEU C 677      24.583   0.440  24.644  0.42 11.73 LIG 0.20  C 
ATOM     28 O    LEU C 677      24.743   0.065  25.853  0.84 11.50 LIG-0.65  OA
ATOM     29 OXT  LEU C 677      23.788  -0.223  23.917  0.55 11.71 LIG-0.65  OA
ENDBRANCH 26 27
BRANCH 26 30
ATOM     30  CB  LEU C 677      26.484   2.257  24.753  1.00 11.60 LIG 0.04  C 
BRANCH 30 31
ATOM     31  CG  LEU C 677      27.874   2.303  24.194  0.82 11.89 LIG-0.02  C 
ATOM     32  CD2 LEU C 677      28.337   0.953  23.628  0.78 11.63 LIG 0.01  C 
ATOM     33  CD1 LEU C 677      28.871   2.692  25.320  1.00 11.42 LIG 0.01  C 
ENDBRANCH 30 31
ENDBRANCH 26 30
ENDBRANCH 24 26
ENDBRANCH 20 22
ENDBRANCH 3 20
TORSDOF 12
ENDMDL
