MODEL 1
USER: ADFR SOLUTION from run 43
USER: SCORE 15.060962 LL:  -3.739 LR: -12.277 RR:   0.000 FEB:  -5.714
USER: RMSD 1.873747
USER: SEED 42
USER: STATUS no improvement in best 3 clusters for 5 generations
USER: GENES 24
USER: genes 0 Translation |==|  0.52987 0.49671 0.53162
USER: genes 1 Rotation |==|  0.54262 0.51916 0.57309 0.99242
USER: genes 2 Torsion [N]-C--CA-[N] |==|  0.33680
USER: genes 3 Torsion [C]-CA--N-[C] |==|  0.52821
USER: genes 4 Torsion [N]-C--CA-[N] |==|  0.25048
USER: genes 5 Torsion [C]-CA--N-[C] |==|  0.78209
USER: genes 6 Torsion [N]-C--CA-[N] |==|  0.09436
USER: genes 7 Torsion [C]-CA--N-[H1] |==|  0.60915
USER: genes 8 Torsion [C]-CA--CB-[CG] |==|  0.81083
USER: genes 9 Torsion [CA]-CB--CG-[CD1] |==|  0.74584
USER: genes 10 Torsion [C]-CA--CB-[CG] |==|  0.78943
USER: genes 11 Torsion [CA]-CB--CG-[CD2] |==|  0.40375
USER: genes 12 Torsion [C]-N--CA-[CB] |==|  0.81667
USER: genes 13 Torsion [N]-CA--CB-[CG] |==|  0.90773
USER: genes 14 Torsion [CA]-CB--CG-[CD2] |==|  0.37650
USER: genes 15 Torsion [CE2]-CZ--OH-[HH] |==|  0.47095
USER: genes 16 Torsion [N]-CA--C-[N] |==|  0.45896
USER: genes 17 Torsion [C]-N--CA-[CB] |==|  0.46182
USER: genes 18 Torsion [N]-CA--CB-[CG] |==|  0.64926
USER: genes 19 Torsion [CA]-CB--CG-[CD] |==|  0.35535
USER: genes 20 Torsion [CB]-CG--CD-[CE] |==|  0.37519
USER: genes 21 Torsion [CG]-CD--CE-[NZ] |==|  0.52281
USER: genes 22 Torsion [CD]-CE--NZ-[HZ1] |==|  0.22150
USER: genes 23 Torsion [N]-CA--C-[OXT] |==|  0.99552
ROOT
ATOM      1  C   ALA I   3      45.956  30.091   9.249  0.30 45.63 LIG 0.24  C 
ATOM      2 O    ALA I   3      45.683  29.026   8.710  0.30 45.40 LIG-0.27  OA
ATOM      3  N   TYR I   4      46.947  30.883   8.822  0.30 45.44 LIG-0.35  N 
ATOM      4 H    TYR I   4      47.110  31.637   9.201  0.30 45.44 LIG 0.16  HD
ENDROOT
BRANCH 1 5
ATOM      5  CA  ALA I   3      45.116  30.568  10.479  0.30 46.01 LIG 0.17  C 
ATOM      6  CB  ALA I   3      45.249  29.645  11.632  0.30 45.75 LIG 0.04  C 
BRANCH 5 7
ATOM      7  N   ALA I   3      43.752  30.626   9.968  0.30 46.50 LIG-0.35  N 
ATOM      8 H    ALA I   3      43.701  30.263   9.190  0.30 46.50 LIG 0.16  HD
ATOM      9  C   LEU I   2      42.659  31.146  10.541  0.30 47.15 LIG 0.24  C 
ATOM     10 O    LEU I   2      42.607  31.680  11.654  0.30 46.92 LIG-0.27  OA
BRANCH 9 11
ATOM     11  CA  LEU I   2      41.494  31.131   9.543  0.30 47.70 LIG 0.18  C 
BRANCH 11 12
ATOM     12  N   LEU I   2      40.530  30.052   9.367  0.30 48.04 LIG-0.35  N 
ATOM     13  C   PHE I   1      41.044  29.067   8.658  0.30 48.35 LIG 0.25  C 
ATOM     14 O    PHE I   1      42.195  29.161   8.266  0.30 48.51 LIG-0.27  OA
ATOM     15 H    LEU I   2      39.745  30.125   9.713  0.30 48.04 LIG 0.16  HD
BRANCH 13 16
ATOM     16  CA  PHE I   1      40.213  27.887   8.218  0.30 48.56 LIG 0.28  C 
BRANCH 16 17
ATOM     17  N   PHE I   1      38.809  28.303   7.928  0.30 48.56 LIG-0.07  N 
ATOM     18 H3   PHE I   1      38.706  28.406   7.050  0.30 48.56 LIG 0.28  HD
ATOM     19 H1   PHE I   1      38.248  27.678   8.221  0.30 48.56 LIG 0.28  HD
ATOM     20 H2   PHE I   1      38.636  29.073   8.340  0.30 48.56 LIG 0.28  HD
ENDBRANCH 16 17
BRANCH 16 21
ATOM     21  CB  PHE I   1      40.872  27.309   6.948  0.30 48.65 LIG 0.08  C 
BRANCH 21 22
ATOM     22  CG  PHE I   1      40.792  28.217   5.714  0.30 49.18 LIG-0.06  A 
ATOM     23  CD1 PHE I   1      39.735  28.099   4.830  0.30 49.79 LIG 0.01  A 
ATOM     24  CE1 PHE I   1      39.660  28.902   3.702  0.30 50.05 LIG 0.00  A 
ATOM     25  CZ  PHE I   1      40.648  29.815   3.434  0.30 49.90 LIG 0.00  A 
ATOM     26  CE2 PHE I   1      41.711  29.931   4.284  0.30 49.43 LIG 0.00  A 
ATOM     27  CD2 PHE I   1      41.789  29.141   5.412  0.30 49.27 LIG 0.01  A 
ENDBRANCH 21 22
ENDBRANCH 16 21
ENDBRANCH 13 16
ENDBRANCH 11 12
BRANCH 11 28
ATOM     28  CB  LEU I   2      40.927  32.471   9.049  0.30 47.77 LIG 0.04  C 
BRANCH 28 29
ATOM     29  CG  LEU I   2      40.043  33.527   9.626  0.30 48.15 LIG-0.02  C 
ATOM     30  CD1 LEU I   2      39.958  33.505  11.113  0.30 48.48 LIG 0.01  C 
ATOM     31  CD2 LEU I   2      40.577  34.812   9.052  0.30 48.19 LIG 0.01  C 
ENDBRANCH 28 29
ENDBRANCH 11 28
ENDBRANCH 9 11
ENDBRANCH 5 7
ENDBRANCH 1 5
BRANCH 3 32
ATOM     32  CA  TYR I   4      47.885  30.614   7.684  0.30 45.17 LIG 0.18  C 
BRANCH 32 33
ATOM     33  CB  TYR I   4      48.821  29.449   7.889  0.30 45.37 LIG 0.07  C 
BRANCH 33 34
ATOM     34  CG  TYR I   4      49.181  29.348   9.366  0.30 45.37 LIG-0.06  A 
ATOM     35  CD2 TYR I   4      49.192  28.134  10.039  0.30 45.58 LIG 0.01  A 
ATOM     36  CE2 TYR I   4      49.496  28.065  11.387  0.30 45.96 LIG 0.04  A 
ATOM     37  CZ  TYR I   4      49.788  29.223  12.070  0.30 45.81 LIG 0.07  A 
ATOM     38  CE1 TYR I   4      49.782  30.440  11.422  0.30 45.70 LIG 0.04  A 
ATOM     39  CD1 TYR I   4      49.489  30.497  10.090  0.30 45.43 LIG 0.01  A 
BRANCH 37 40
ATOM     40 OH   TYR I   4      50.079  29.157  13.411  0.30 46.58 LIG-0.36  OA
ATOM     41 HH   TYR I   4      50.375  29.899  13.670  0.30 46.58 LIG 0.22  HD
ENDBRANCH 37 40
ENDBRANCH 33 34
ENDBRANCH 32 33
BRANCH 32 42
ATOM     42  C   TYR I   4      47.448  30.761   6.231  0.30 45.00 LIG 0.24  C 
ATOM     43  N   LYS I   5      48.516  30.782   5.447  0.30 44.74 LIG-0.34  N 
ATOM     44 H    LYS I   5      49.303  30.682   5.781  0.30 44.74 LIG 0.16  HD
ATOM     45 O    TYR I   4      46.270  30.747   5.859  0.30 44.60 LIG-0.27  OA
BRANCH 43 46
ATOM     46  CA  LYS I   5      48.575  30.960   4.020  0.30 44.60 LIG 0.18  C 
BRANCH 46 47
ATOM     47  CB  LYS I   5      50.052  31.245   3.724  0.30 43.50 LIG 0.04  C 
BRANCH 47 48
ATOM     48  CG  LYS I   5      50.398  32.487   2.945  0.30 39.10 LIG 0.00  C 
BRANCH 48 49
ATOM     49  CD  LYS I   5      51.448  33.264   3.717  0.30 31.49 LIG 0.03  C 
BRANCH 49 50
ATOM     50  CE  LYS I   5      52.560  33.747   2.815  0.30 26.75 LIG 0.23  C 
BRANCH 50 51
ATOM     51  NZ  LYS I   5      53.630  34.308   3.549  0.30 17.53 LIG-0.08  N 
ATOM     52 HZ1  LYS I   5      54.140  33.656   3.875  0.30 17.53 LIG 0.27  HD
ATOM     53 HZ2  LYS I   5      54.118  34.826   3.014  0.30 17.53 LIG 0.27  HD
ATOM     54 HZ3  LYS I   5      53.307  34.796   4.220  0.30 17.53 LIG 0.27  HD
ENDBRANCH 50 51
ENDBRANCH 49 50
ENDBRANCH 48 49
ENDBRANCH 47 48
ENDBRANCH 46 47
BRANCH 46 55
ATOM     55  C   LYS I   5      48.103  29.767   3.232  0.30 45.89 LIG 0.20  C 
ATOM     56 OXT  LYS I   5      47.754  28.779   3.867  1.00 48.13 LIG-0.65  OA
ATOM     57 O    LYS I   5      48.069  29.854   2.007  1.00 47.49 LIG-0.65  OA
ENDBRANCH 46 55
ENDBRANCH 43 46
ENDBRANCH 32 42
ENDBRANCH 3 32
TORSDOF 22
ENDMDL
MODEL 2
USER: ADFR SOLUTION from run 85
USER: SCORE 13.187143 LL:  -3.351 LR: -11.358 RR:   0.000 FEB:  -4.795
USER: RMSD 2.011533
USER: SEED 84
USER: STATUS no improvement in best 2 clusters for 5 generations
USER: GENES 24
USER: genes 0 Translation |==|  0.50296 0.50077 0.53129
USER: genes 1 Rotation |==|  0.65729 0.44505 0.44536 0.96825
USER: genes 2 Torsion [N]-C--CA-[N] |==|  0.51480
USER: genes 3 Torsion [C]-CA--N-[C] |==|  0.45454
USER: genes 4 Torsion [N]-C--CA-[N] |==|  0.21711
USER: genes 5 Torsion [C]-CA--N-[C] |==|  0.74700
USER: genes 6 Torsion [N]-C--CA-[N] |==|  0.05163
USER: genes 7 Torsion [C]-CA--N-[H1] |==|  0.58365
USER: genes 8 Torsion [C]-CA--CB-[CG] |==|  0.38385
USER: genes 9 Torsion [CA]-CB--CG-[CD1] |==|  0.61626
USER: genes 10 Torsion [C]-CA--CB-[CG] |==|  0.51317
USER: genes 11 Torsion [CA]-CB--CG-[CD2] |==|  0.46737
USER: genes 12 Torsion [C]-N--CA-[CB] |==|  0.73009
USER: genes 13 Torsion [N]-CA--CB-[CG] |==|  0.82963
USER: genes 14 Torsion [CA]-CB--CG-[CD2] |==|  0.44019
USER: genes 15 Torsion [CE2]-CZ--OH-[HH] |==|  0.48610
USER: genes 16 Torsion [N]-CA--C-[N] |==|  0.39163
USER: genes 17 Torsion [C]-N--CA-[CB] |==|  0.48785
USER: genes 18 Torsion [N]-CA--CB-[CG] |==|  0.48697
USER: genes 19 Torsion [CA]-CB--CG-[CD] |==|  0.48150
USER: genes 20 Torsion [CB]-CG--CD-[CE] |==|  0.52136
USER: genes 21 Torsion [CG]-CD--CE-[NZ] |==|  0.38810
USER: genes 22 Torsion [CD]-CE--NZ-[HZ1] |==|  0.37250
USER: genes 23 Torsion [N]-CA--C-[OXT] |==|  0.94195
ROOT
ATOM      1  C   ALA I   3      45.149  30.213   9.239  0.30 45.63 LIG 0.24  C 
ATOM      2 O    ALA I   3      44.596  29.786   8.232  0.30 45.40 LIG-0.27  OA
ATOM      3  N   TYR I   4      46.466  30.440   9.298  0.30 45.44 LIG-0.35  N 
ATOM      4 H    TYR I   4      46.833  30.759  10.007  0.30 45.44 LIG 0.16  HD
ENDROOT
BRANCH 1 5
ATOM      5  CA  ALA I   3      44.294  30.523  10.512  0.30 46.01 LIG 0.17  C 
ATOM      6  CB  ALA I   3      44.833  29.851  11.718  0.30 45.75 LIG 0.04  C 
BRANCH 5 7
ATOM      7  N   ALA I   3      42.961  30.051  10.160  0.30 46.50 LIG-0.35  N 
ATOM      8 H    ALA I   3      42.891  29.937   9.310  0.30 46.50 LIG 0.16  HD
ATOM      9  C   LEU I   2      41.919  29.797  10.961  0.30 47.15 LIG 0.24  C 
ATOM     10 O    LEU I   2      41.903  29.911  12.191  0.30 46.92 LIG-0.27  OA
BRANCH 9 11
ATOM     11  CA  LEU I   2      40.676  29.494  10.113  0.30 47.70 LIG 0.18  C 
BRANCH 11 12
ATOM     12  N   LEU I   2      40.386  28.234   9.438  0.30 48.04 LIG-0.35  N 
ATOM     13  C   PHE I   1      40.857  28.235   8.208  0.30 48.35 LIG 0.25  C 
ATOM     14 O    PHE I   1      41.452  29.221   7.805  0.30 48.51 LIG-0.27  OA
ATOM     15 H    LEU I   2      39.956  27.618   9.859  0.30 48.04 LIG 0.16  HD
BRANCH 13 16
ATOM     16  CA  PHE I   1      40.576  27.105   7.249  0.30 48.56 LIG 0.28  C 
BRANCH 16 17
ATOM     17  N   PHE I   1      39.402  26.301   7.701  0.30 48.56 LIG-0.07  N 
ATOM     18 H3   PHE I   1      38.658  26.641   7.351  0.30 48.56 LIG 0.28  HD
ATOM     19 H1   PHE I   1      39.499  25.459   7.433  0.30 48.56 LIG 0.28  HD
ATOM     20 H2   PHE I   1      39.350  26.326   8.589  0.30 48.56 LIG 0.28  HD
ENDBRANCH 16 17
BRANCH 16 21
ATOM     21  CB  PHE I   1      40.293  27.734   5.868  0.30 48.65 LIG 0.08  C 
BRANCH 21 22
ATOM     22  CG  PHE I   1      40.936  26.999   4.685  0.30 49.18 LIG-0.06  A 
ATOM     23  CD1 PHE I   1      41.528  27.714   3.660  0.30 49.79 LIG 0.01  A 
ATOM     24  CE1 PHE I   1      42.098  27.063   2.576  0.30 50.05 LIG 0.00  A 
ATOM     25  CZ  PHE I   1      42.065  25.693   2.495  0.30 49.90 LIG 0.00  A 
ATOM     26  CE2 PHE I   1      41.466  24.971   3.487  0.30 49.43 LIG 0.00  A 
ATOM     27  CD2 PHE I   1      40.904  25.612   4.572  0.30 49.27 LIG 0.01  A 
ENDBRANCH 21 22
ENDBRANCH 16 21
ENDBRANCH 13 16
ENDBRANCH 11 12
BRANCH 11 28
ATOM     28  CB  LEU I   2      39.392  30.297  10.369  0.30 47.77 LIG 0.04  C 
BRANCH 28 29
ATOM     29  CG  LEU I   2      37.993  30.257   9.850  0.30 48.15 LIG-0.02  C 
ATOM     30  CD1 LEU I   2      37.430  28.884   9.720  0.30 48.48 LIG 0.01  C 
ATOM     31  CD2 LEU I   2      37.226  31.159  10.778  0.30 48.19 LIG 0.01  C 
ENDBRANCH 28 29
ENDBRANCH 11 28
ENDBRANCH 9 11
ENDBRANCH 5 7
ENDBRANCH 1 5
BRANCH 3 32
ATOM     32  CA  TYR I   4      47.470  30.194   8.211  0.30 45.17 LIG 0.18  C 
BRANCH 32 33
ATOM     33  CB  TYR I   4      48.218  28.888   8.316  0.30 45.37 LIG 0.07  C 
BRANCH 33 34
ATOM     34  CG  TYR I   4      49.006  28.863   9.620  0.30 45.37 LIG-0.06  A 
ATOM     35  CD2 TYR I   4      49.425  27.675  10.203  0.30 45.58 LIG 0.01  A 
ATOM     36  CE2 TYR I   4      50.118  27.671  11.401  0.30 45.96 LIG 0.04  A 
ATOM     37  CZ  TYR I   4      50.389  28.867  12.024  0.30 45.81 LIG 0.07  A 
ATOM     38  CE1 TYR I   4      49.981  30.059  11.464  0.30 45.70 LIG 0.04  A 
ATOM     39  CD1 TYR I   4      49.306  30.053  10.277  0.30 45.43 LIG 0.01  A 
BRANCH 37 40
ATOM     40 OH   TYR I   4      51.067  28.864  13.219  0.30 46.58 LIG-0.36  OA
ATOM     41 HH   TYR I   4      51.225  29.654  13.454  0.30 46.58 LIG 0.22  HD
ENDBRANCH 37 40
ENDBRANCH 33 34
ENDBRANCH 32 33
BRANCH 32 42
ATOM     42  C   TYR I   4      47.205  30.599   6.767  0.30 45.00 LIG 0.24  C 
ATOM     43  N   LYS I   5      48.318  31.074   6.228  0.30 44.74 LIG-0.34  N 
ATOM     44 H    LYS I   5      49.051  31.082   6.679  0.30 44.74 LIG 0.16  HD
ATOM     45 O    TYR I   4      46.137  30.400   6.178  0.30 44.60 LIG-0.27  OA
BRANCH 43 46
ATOM     46  CA  LYS I   5      48.513  31.620   4.910  0.30 44.60 LIG 0.18  C 
BRANCH 46 47
ATOM     47  CB  LYS I   5      49.968  32.102   4.900  0.30 43.50 LIG 0.04  C 
BRANCH 47 48
ATOM     48  CG  LYS I   5      50.535  32.638   3.611  0.30 39.10 LIG 0.00  C 
BRANCH 48 49
ATOM     49  CD  LYS I   5      51.916  33.200   3.888  0.30 31.49 LIG 0.03  C 
BRANCH 49 50
ATOM     50  CE  LYS I   5      52.475  33.925   2.685  0.30 26.75 LIG 0.23  C 
BRANCH 50 51
ATOM     51  NZ  LYS I   5      53.155  35.109   3.050  0.30 17.53 LIG-0.08  N 
ATOM     52 HZ1  LYS I   5      53.930  35.152   2.616  0.30 17.53 LIG 0.27  HD
ATOM     53 HZ2  LYS I   5      52.657  35.815   2.835  0.30 17.53 LIG 0.27  HD
ATOM     54 HZ3  LYS I   5      53.305  35.107   3.927  0.30 17.53 LIG 0.27  HD
ENDBRANCH 50 51
ENDBRANCH 49 50
ENDBRANCH 48 49
ENDBRANCH 47 48
ENDBRANCH 46 47
BRANCH 46 55
ATOM     55  C   LYS I   5      48.279  30.634   3.797  0.30 45.89 LIG 0.20  C 
ATOM     56 OXT  LYS I   5      48.345  29.444   4.079  1.00 48.13 LIG-0.65  OA
ATOM     57 O    LYS I   5      48.012  31.070   2.679  1.00 47.49 LIG-0.65  OA
ENDBRANCH 46 55
ENDBRANCH 43 46
ENDBRANCH 32 42
ENDBRANCH 3 32
TORSDOF 22
ENDMDL
MODEL 3
USER: ADFR SOLUTION from run 87
USER: SCORE 13.934379 LL:  -3.889 LR: -10.441 RR:   0.000 FEB:  -3.879
USER: RMSD 2.003771
USER: SEED 86
USER: STATUS 1 or 2 clusters left
USER: GENES 24
USER: genes 0 Translation |==|  0.52115 0.51132 0.55001
USER: genes 1 Rotation |==|  0.52685 0.52841 0.49325 0.99842
USER: genes 2 Torsion [N]-C--CA-[N] |==|  0.41727
USER: genes 3 Torsion [C]-CA--N-[C] |==|  0.64280
USER: genes 4 Torsion [N]-C--CA-[N] |==|  0.03759
USER: genes 5 Torsion [C]-CA--N-[C] |==|  0.76111
USER: genes 6 Torsion [N]-C--CA-[N] |==|  0.97124
USER: genes 7 Torsion [C]-CA--N-[H1] |==|  0.75917
USER: genes 8 Torsion [C]-CA--CB-[CG] |==|  0.76544
USER: genes 9 Torsion [CA]-CB--CG-[CD1] |==|  0.63030
USER: genes 10 Torsion [C]-CA--CB-[CG] |==|  0.22934
USER: genes 11 Torsion [CA]-CB--CG-[CD2] |==|  0.93983
USER: genes 12 Torsion [C]-N--CA-[CB] |==|  0.84429
USER: genes 13 Torsion [N]-CA--CB-[CG] |==|  0.79965
USER: genes 14 Torsion [CA]-CB--CG-[CD2] |==|  0.47599
USER: genes 15 Torsion [CE2]-CZ--OH-[HH] |==|  0.53933
USER: genes 16 Torsion [N]-CA--C-[N] |==|  0.37931
USER: genes 17 Torsion [C]-N--CA-[CB] |==|  0.45467
USER: genes 18 Torsion [N]-CA--CB-[CG] |==|  0.56382
USER: genes 19 Torsion [CA]-CB--CG-[CD] |==|  0.54387
USER: genes 20 Torsion [CB]-CG--CD-[CE] |==|  0.65321
USER: genes 21 Torsion [CG]-CD--CE-[NZ] |==|  0.36835
USER: genes 22 Torsion [CD]-CE--NZ-[HZ1] |==|  0.03160
USER: genes 23 Torsion [N]-CA--C-[OXT] |==|  0.99289
ROOT
ATOM      1  C   ALA I   3      45.695  30.530   9.800  0.30 45.63 LIG 0.24  C 
ATOM      2 O    ALA I   3      45.074  29.566   9.370  0.30 45.40 LIG-0.27  OA
ATOM      3  N   TYR I   4      46.850  30.941   9.265  0.30 45.44 LIG-0.35  N 
ATOM      4 H    TYR I   4      47.261  31.633   9.569  0.30 45.44 LIG 0.16  HD
ENDROOT
BRANCH 1 5
ATOM      5  CA  ALA I   3      45.123  31.331  11.016  0.30 46.01 LIG 0.17  C 
ATOM      6  CB  ALA I   3      45.645  30.825  12.308  0.30 45.75 LIG 0.04  C 
BRANCH 5 7
ATOM      7  N   ALA I   3      43.680  31.166  10.895  0.30 46.50 LIG-0.35  N 
ATOM      8 H    ALA I   3      43.473  30.335  10.814  0.30 46.50 LIG 0.16  HD
ATOM      9  C   LEU I   2      42.722  32.100  10.899  0.30 47.15 LIG 0.24  C 
ATOM     10 O    LEU I   2      42.894  33.317  11.020  0.30 46.92 LIG-0.27  OA
BRANCH 9 11
ATOM     11  CA  LEU I   2      41.369  31.457  10.563  0.30 47.70 LIG 0.18  C 
BRANCH 11 12
ATOM     12  N   LEU I   2      41.080  30.028  10.552  0.30 48.04 LIG-0.35  N 
ATOM     13  C   PHE I   1      41.386  29.491   9.388  0.30 48.35 LIG 0.25  C 
ATOM     14 O    PHE I   1      41.856  30.202   8.515  0.30 48.51 LIG-0.27  OA
ATOM     15 H    LEU I   2      40.752  29.657  11.255  0.30 48.04 LIG 0.16  HD
BRANCH 13 16
ATOM     16  CA  PHE I   1      41.060  28.053   9.066  0.30 48.56 LIG 0.28  C 
BRANCH 16 17
ATOM     17  N   PHE I   1      40.609  27.323  10.287  0.30 48.56 LIG-0.07  N 
ATOM     18 H3   PHE I   1      40.075  26.651  10.051  0.30 48.56 LIG 0.28  HD
ATOM     19 H1   PHE I   1      41.317  27.002  10.719  0.30 48.56 LIG 0.28  HD
ATOM     20 H2   PHE I   1      40.165  27.881  10.820  0.30 48.56 LIG 0.28  HD
ENDBRANCH 16 17
BRANCH 16 21
ATOM     21  CB  PHE I   1      39.940  28.063   8.005  0.30 48.65 LIG 0.08  C 
BRANCH 21 22
ATOM     22  CG  PHE I   1      38.520  28.193   8.572  0.30 49.18 LIG-0.06  A 
ATOM     23  CD1 PHE I   1      37.513  27.357   8.127  0.30 49.79 LIG 0.01  A 
ATOM     24  CE1 PHE I   1      36.221  27.475   8.619  0.30 50.05 LIG 0.00  A 
ATOM     25  CZ  PHE I   1      35.919  28.441   9.544  0.30 49.90 LIG 0.00  A 
ATOM     26  CE2 PHE I   1      36.896  29.290   9.981  0.30 49.43 LIG 0.00  A 
ATOM     27  CD2 PHE I   1      38.184  29.174   9.501  0.30 49.27 LIG 0.01  A 
ENDBRANCH 21 22
ENDBRANCH 16 21
ENDBRANCH 13 16
ENDBRANCH 11 12
BRANCH 11 28
ATOM     28  CB  LEU I   2      40.089  32.283  10.758  0.30 47.77 LIG 0.04  C 
BRANCH 28 29
ATOM     29  CG  LEU I   2      39.355  33.307   9.958  0.30 48.15 LIG-0.02  C 
ATOM     30  CD1 LEU I   2      38.661  34.339  10.779  0.30 48.48 LIG 0.01  C 
ATOM     31  CD2 LEU I   2      40.392  33.857   9.015  0.30 48.19 LIG 0.01  C 
ENDBRANCH 28 29
ENDBRANCH 11 28
ENDBRANCH 9 11
ENDBRANCH 5 7
ENDBRANCH 1 5
BRANCH 3 32
ATOM     32  CA  TYR I   4      47.584  30.313   8.119  0.30 45.17 LIG 0.18  C 
BRANCH 32 33
ATOM     33  CB  TYR I   4      47.925  28.855   8.301  0.30 45.37 LIG 0.07  C 
BRANCH 33 34
ATOM     34  CG  TYR I   4      49.039  28.724   9.332  0.30 45.37 LIG-0.06  A 
ATOM     35  CD2 TYR I   4      49.438  27.491   9.832  0.30 45.58 LIG 0.01  A 
ATOM     36  CE2 TYR I   4      50.434  27.394  10.787  0.30 45.96 LIG 0.04  A 
ATOM     37  CZ  TYR I   4      51.034  28.541  11.250  0.30 45.81 LIG 0.07  A 
ATOM     38  CE1 TYR I   4      50.654  29.776  10.769  0.30 45.70 LIG 0.04  A 
ATOM     39  CD1 TYR I   4      49.675  29.862   9.821  0.30 45.43 LIG 0.01  A 
BRANCH 37 40
ATOM     40 OH   TYR I   4      52.016  28.447  12.207  0.30 46.58 LIG-0.36  OA
ATOM     41 HH   TYR I   4      52.158  29.206  12.537  0.30 46.58 LIG 0.22  HD
ENDBRANCH 37 40
ENDBRANCH 33 34
ENDBRANCH 32 33
BRANCH 32 42
ATOM     42  C   TYR I   4      47.258  30.659   6.671  0.30 45.00 LIG 0.24  C 
ATOM     43  N   LYS I   5      48.384  30.821   5.990  0.30 44.74 LIG-0.34  N 
ATOM     44 H    LYS I   5      49.145  30.692   6.371  0.30 44.74 LIG 0.16  HD
ATOM     45 O    TYR I   4      46.115  30.670   6.203  0.30 44.60 LIG-0.27  OA
BRANCH 43 46
ATOM     46  CA  LYS I   5      48.549  31.205   4.613  0.30 44.60 LIG 0.18  C 
BRANCH 46 47
ATOM     47  CB  LYS I   5      50.018  31.630   4.502  0.30 43.50 LIG 0.04  C 
BRANCH 47 48
ATOM     48  CG  LYS I   5      50.410  32.563   3.385  0.30 39.10 LIG 0.00  C 
BRANCH 48 49
ATOM     49  CD  LYS I   5      51.919  32.528   3.234  0.30 31.49 LIG 0.03  C 
BRANCH 49 50
ATOM     50  CE  LYS I   5      52.521  33.910   3.335  0.30 26.75 LIG 0.23  C 
BRANCH 50 51
ATOM     51  NZ  LYS I   5      53.634  33.940   4.205  0.30 17.53 LIG-0.08  N 
ATOM     52 HZ1  LYS I   5      53.876  33.108   4.407  0.30 17.53 LIG 0.27  HD
ATOM     53 HZ2  LYS I   5      54.312  34.356   3.807  0.30 17.53 LIG 0.27  HD
ATOM     54 HZ3  LYS I   5      53.416  34.374   4.952  0.30 17.53 LIG 0.27  HD
ENDBRANCH 50 51
ENDBRANCH 49 50
ENDBRANCH 48 49
ENDBRANCH 47 48
ENDBRANCH 46 47
BRANCH 46 55
ATOM     55  C   LYS I   5      48.244  30.109   3.628  0.30 45.89 LIG 0.20  C 
ATOM     56 OXT  LYS I   5      47.941  29.013   4.085  1.00 48.13 LIG-0.65  OA
ATOM     57 O    LYS I   5      48.289  30.373   2.429  1.00 47.49 LIG-0.65  OA
ENDBRANCH 46 55
ENDBRANCH 43 46
ENDBRANCH 32 42
ENDBRANCH 3 32
TORSDOF 22
ENDMDL
MODEL 4
USER: ADFR SOLUTION from run 41
USER: SCORE 13.575373 LL:  -3.651 LR: -10.426 RR:   0.000 FEB:  -3.863
USER: RMSD 2.230959
USER: SEED 40
USER: STATUS no improvement in best 2 clusters for 5 generations
USER: GENES 24
USER: genes 0 Translation |==|  0.51008 0.50233 0.54939
USER: genes 1 Rotation |==|  0.54710 0.51187 0.50282 0.99763
USER: genes 2 Torsion [N]-C--CA-[N] |==|  0.37222
USER: genes 3 Torsion [C]-CA--N-[C] |==|  0.60779
USER: genes 4 Torsion [N]-C--CA-[N] |==|  0.19517
USER: genes 5 Torsion [C]-CA--N-[C] |==|  0.76548
USER: genes 6 Torsion [N]-C--CA-[N] |==|  0.15140
USER: genes 7 Torsion [C]-CA--N-[H1] |==|  0.28053
USER: genes 8 Torsion [C]-CA--CB-[CG] |==|  0.27010
USER: genes 9 Torsion [CA]-CB--CG-[CD1] |==|  0.95567
USER: genes 10 Torsion [C]-CA--CB-[CG] |==|  0.79688
USER: genes 11 Torsion [CA]-CB--CG-[CD2] |==|  0.27823
USER: genes 12 Torsion [C]-N--CA-[CB] |==|  0.83631
USER: genes 13 Torsion [N]-CA--CB-[CG] |==|  0.80496
USER: genes 14 Torsion [CA]-CB--CG-[CD2] |==|  0.44268
USER: genes 15 Torsion [CE2]-CZ--OH-[HH] |==|  0.54311
USER: genes 16 Torsion [N]-CA--C-[N] |==|  0.37153
USER: genes 17 Torsion [C]-N--CA-[CB] |==|  0.45664
USER: genes 18 Torsion [N]-CA--CB-[CG] |==|  0.48168
USER: genes 19 Torsion [CA]-CB--CG-[CD] |==|  0.49575
USER: genes 20 Torsion [CB]-CG--CD-[CE] |==|  0.54267
USER: genes 21 Torsion [CG]-CD--CE-[NZ] |==|  0.38706
USER: genes 22 Torsion [CD]-CE--NZ-[HZ1] |==|  0.39474
USER: genes 23 Torsion [N]-CA--C-[OXT] |==|  0.97913
ROOT
ATOM      1  C   ALA I   3      45.362  30.260   9.782  0.30 45.63 LIG 0.24  C 
ATOM      2 O    ALA I   3      44.804  29.318   9.232  0.30 45.40 LIG-0.27  OA
ATOM      3  N   TYR I   4      46.537  30.746   9.364  0.30 45.44 LIG-0.35  N 
ATOM      4 H    TYR I   4      46.904  31.421   9.751  0.30 45.44 LIG 0.16  HD
ENDROOT
BRANCH 1 5
ATOM      5  CA  ALA I   3      44.684  30.942  11.015  0.30 46.01 LIG 0.17  C 
ATOM      6  CB  ALA I   3      44.819  30.124  12.244  0.30 45.75 LIG 0.04  C 
BRANCH 5 7
ATOM      7  N   ALA I   3      43.295  31.104  10.604  0.30 46.50 LIG-0.35  N 
ATOM      8 H    ALA I   3      43.027  30.421  10.156  0.30 46.50 LIG 0.16  HD
ATOM      9  C   LEU I   2      42.462  32.126  10.835  0.30 47.15 LIG 0.24  C 
ATOM     10 O    LEU I   2      42.728  33.150  11.472  0.30 46.92 LIG-0.27  OA
BRANCH 9 11
ATOM     11  CA  LEU I   2      41.160  31.920  10.050  0.30 47.70 LIG 0.18  C 
BRANCH 11 12
ATOM     12  N   LEU I   2      40.141  30.915  10.328  0.30 48.04 LIG-0.35  N 
ATOM     13  C   PHE I   1      40.446  29.762   9.768  0.30 48.35 LIG 0.25  C 
ATOM     14 O    PHE I   1      41.483  29.672   9.131  0.30 48.51 LIG-0.27  OA
ATOM     15 H    LEU I   2      39.457  31.127  10.806  0.30 48.04 LIG 0.16  HD
BRANCH 13 16
ATOM     16  CA  PHE I   1      39.494  28.592   9.790  0.30 48.56 LIG 0.28  C 
BRANCH 16 17
ATOM     17  N   PHE I   1      38.164  28.976   9.233  0.30 48.56 LIG-0.07  N 
ATOM     18 H3   PHE I   1      38.081  29.863   9.247  0.30 48.56 LIG 0.28  HD
ATOM     19 H1   PHE I   1      38.098  28.685   8.395  0.30 48.56 LIG 0.28  HD
ATOM     20 H2   PHE I   1      37.519  28.611   9.725  0.30 48.56 LIG 0.28  HD
ENDBRANCH 16 17
BRANCH 16 21
ATOM     21  CB  PHE I   1      40.125  27.470   8.939  0.30 48.65 LIG 0.08  C 
BRANCH 21 22
ATOM     22  CG  PHE I   1      40.884  26.405   9.742  0.30 49.18 LIG-0.06  A 
ATOM     23  CD1 PHE I   1      41.249  26.649  11.053  0.30 49.79 LIG 0.01  A 
ATOM     24  CE1 PHE I   1      41.949  25.702  11.784  0.30 50.05 LIG 0.00  A 
ATOM     25  CZ  PHE I   1      42.310  24.510  11.208  0.30 49.90 LIG 0.00  A 
ATOM     26  CE2 PHE I   1      41.977  24.259   9.907  0.30 49.43 LIG 0.00  A 
ATOM     27  CD2 PHE I   1      41.273  25.194   9.176  0.30 49.27 LIG 0.01  A 
ENDBRANCH 21 22
ENDBRANCH 16 21
ENDBRANCH 13 16
ENDBRANCH 11 12
BRANCH 11 28
ATOM     28  CB  LEU I   2      40.574  33.104   9.266  0.30 47.77 LIG 0.04  C 
BRANCH 28 29
ATOM     29  CG  LEU I   2      39.870  34.371   9.624  0.30 48.15 LIG-0.02  C 
ATOM     30  CD1 LEU I   2      39.150  34.320  10.928  0.30 48.48 LIG 0.01  C 
ATOM     31  CD2 LEU I   2      40.940  35.426   9.546  0.30 48.19 LIG 0.01  C 
ENDBRANCH 28 29
ENDBRANCH 11 28
ENDBRANCH 9 11
ENDBRANCH 5 7
ENDBRANCH 1 5
BRANCH 3 32
ATOM     32  CA  TYR I   4      47.367  30.235   8.225  0.30 45.17 LIG 0.18  C 
BRANCH 32 33
ATOM     33  CB  TYR I   4      47.799  28.794   8.345  0.30 45.37 LIG 0.07  C 
BRANCH 33 34
ATOM     34  CG  TYR I   4      48.835  28.672   9.456  0.30 45.37 LIG-0.06  A 
ATOM     35  CD2 TYR I   4      49.105  27.461  10.079  0.30 45.58 LIG 0.01  A 
ATOM     36  CE2 TYR I   4      50.030  27.373  11.104  0.30 45.96 LIG 0.04  A 
ATOM     37  CZ  TYR I   4      50.689  28.509  11.513  0.30 45.81 LIG 0.07  A 
ATOM     38  CE1 TYR I   4      50.436  29.723  10.909  0.30 45.70 LIG 0.04  A 
ATOM     39  CD1 TYR I   4      49.527  29.798   9.893  0.30 45.43 LIG 0.01  A 
BRANCH 37 40
ATOM     40 OH   TYR I   4      51.599  28.426  12.538  0.30 46.58 LIG-0.36  OA
ATOM     41 HH   TYR I   4      51.766  29.196  12.828  0.30 46.58 LIG 0.22  HD
ENDBRANCH 37 40
ENDBRANCH 33 34
ENDBRANCH 32 33
BRANCH 32 42
ATOM     42  C   TYR I   4      47.088  30.641   6.783  0.30 45.00 LIG 0.24  C 
ATOM     43  N   LYS I   5      48.224  30.975   6.189  0.30 44.74 LIG-0.34  N 
ATOM     44 H    LYS I   5      48.972  30.907   6.609  0.30 44.74 LIG 0.16  HD
ATOM     45 O    TYR I   4      45.980  30.556   6.243  0.30 44.60 LIG-0.27  OA
BRANCH 43 46
ATOM     46  CA  LYS I   5      48.423  31.470   4.851  0.30 44.60 LIG 0.18  C 
BRANCH 46 47
ATOM     47  CB  LYS I   5      49.844  32.047   4.858  0.30 43.50 LIG 0.04  C 
BRANCH 47 48
ATOM     48  CG  LYS I   5      50.430  32.518   3.552  0.30 39.10 LIG 0.00  C 
BRANCH 48 49
ATOM     49  CD  LYS I   5      51.815  33.076   3.819  0.30 31.49 LIG 0.03  C 
BRANCH 49 50
ATOM     50  CE  LYS I   5      52.318  33.899   2.655  0.30 26.75 LIG 0.23  C 
BRANCH 50 51
ATOM     51  NZ  LYS I   5      52.991  35.065   3.084  0.30 17.53 LIG-0.08  N 
ATOM     52 HZ1  LYS I   5      53.688  35.219   2.552  0.30 17.53 LIG 0.27  HD
ATOM     53 HZ2  LYS I   5      52.435  35.759   3.049  0.30 17.53 LIG 0.27  HD
ATOM     54 HZ3  LYS I   5      53.275  34.954   3.920  0.30 17.53 LIG 0.27  HD
ENDBRANCH 50 51
ENDBRANCH 49 50
ENDBRANCH 48 49
ENDBRANCH 47 48
ENDBRANCH 46 47
BRANCH 46 55
ATOM     55  C   LYS I   5      48.288  30.419   3.781  0.30 45.89 LIG 0.20  C 
ATOM     56 OXT  LYS I   5      48.170  29.257   4.149  1.00 48.13 LIG-0.65  OA
ATOM     57 O    LYS I   5      48.279  30.782   2.607  1.00 47.49 LIG-0.65  OA
ENDBRANCH 46 55
ENDBRANCH 43 46
ENDBRANCH 32 42
ENDBRANCH 3 32
TORSDOF 22
ENDMDL
