MODEL 1
USER: ADFR SOLUTION from run 127
USER: SCORE 9.407812 LL:  -2.207 LR:  -9.117 RR:   0.000 FEB:  -4.642
USER: RMSD 2.018272
USER: SEED 126
USER: STATUS no improvement in best 4 clusters for 5 generations
USER: GENES 17
USER: genes 0 Translation |==|  0.54631 0.50562 0.47227
USER: genes 1 Rotation |==|  0.48648 0.52346 0.45689 0.99740
USER: genes 2 Torsion [C]-CA--CB-[CG] |==|  0.28815
USER: genes 3 Torsion [CA]-CB--CG-[CD] |==|  0.39617
USER: genes 4 Torsion [CB]-CG--CD-[NE] |==|  0.18077
USER: genes 5 Torsion [CG]-CD--NE-[CZ] |==|  0.47404
USER: genes 6 Torsion [N]-CA--C-[N] |==|  0.54035
USER: genes 7 Torsion [C]-N--CA-[CB] |==|  0.40765
USER: genes 8 Torsion [N]-CA--C-[OXT] |==|  0.15323
USER: genes 9 Torsion [N]-CA--CB-[OG] |==|  0.01301
USER: genes 10 Torsion [CA]-CB--OG-[HG] |==|  0.47241
USER: genes 11 Torsion [CB]-CA--N-[C] |==|  0.40461
USER: genes 12 Torsion [N]-C--CA-[N] |==|  0.38151
USER: genes 13 Torsion [C]-CA--N-[C] |==|  0.71119
USER: genes 14 Torsion [N]-C--CA-[N] |==|  0.28139
USER: genes 15 Torsion [C]-CA--CB-[CG2] |==|  0.48110
USER: genes 16 Torsion [C]-CA--N-[H1] |==|  0.39440
ROOT
ATOM      1  CA  ARG B   3      54.619  41.559   7.748  0.50 45.43 LIG 0.18  C 
ENDROOT
BRANCH 1 2
ATOM      2  CB  ARG B   3      54.129  40.427   6.886  0.50 45.40 LIG 0.04  C 
BRANCH 2 3
ATOM      3  CG  ARG B   3      53.683  39.284   7.733  0.50 45.00 LIG 0.02  C 
BRANCH 3 4
ATOM      4  CD  ARG B   3      52.485  38.616   7.162  0.50 44.41 LIG 0.14  C 
BRANCH 4 5
ATOM      5  NE  ARG B   3      52.836  38.008   5.891  0.50 44.18 LIG-0.23  N 
ATOM      6  CZ  ARG B   3      52.044  37.194   5.222  0.50 43.75 LIG 0.67  C 
ATOM      7  NH1 ARG B   3      52.450  36.677   4.078  0.50 44.03 LIG-0.23  N 
ATOM      8  NH2 ARG B   3      50.843  36.895   5.692  0.50 43.85 LIG-0.23  N 
ATOM      9 12HH ARG B   3      51.936  36.145   3.639  0.50 44.03 LIG 0.17  HD
ATOM     10 11HH ARG B   3      53.230  36.871   3.771  0.50 44.03 LIG 0.17  HD
ATOM     11 22HH ARG B   3      50.330  36.364   5.253  0.50 43.85 LIG 0.17  HD
ATOM     12 21HH ARG B   3      50.577  37.233   6.437  0.50 43.85 LIG 0.17  HD
ATOM     13 HE   ARG B   3      53.607  38.190   5.555  0.50 44.18 LIG 0.18  HD
ENDBRANCH 4 5
ENDBRANCH 3 4
ENDBRANCH 2 3
ENDBRANCH 1 2
BRANCH 1 14
ATOM     14  C   ARG B   3      56.136  41.613   7.738  0.50 45.62 LIG 0.24  C 
ATOM     15  N   SER B   4      56.728  40.424   7.700  0.50 45.72 LIG-0.34  N 
ATOM     16 H    SER B   4      56.302  39.680   7.628  0.50 45.72 LIG 0.16  HD
ATOM     17 O    ARG B   3      56.746  42.682   7.747  0.50 45.72 LIG-0.27  OA
BRANCH 15 18
ATOM     18  CA  SER B   4      58.171  40.281   7.779  0.50 45.84 LIG 0.21  C 
BRANCH 18 19
ATOM     19  C   SER B   4      58.832  40.284   6.405  0.50 45.90 LIG 0.20  C 
ATOM     20 O    SER B   4      59.570  39.361   6.056  0.50 45.95 LIG-0.65  OA
ATOM     21 OXT  SER B   4      58.652  41.209   5.614  0.50 46.05 LIG-0.65  OA
ENDBRANCH 18 19
BRANCH 18 22
ATOM     22  CB  SER B   4      58.502  38.984   8.513  0.50 45.85 LIG 0.20  C 
BRANCH 22 23
ATOM     23 OG   SER B   4      57.324  38.253   8.806  0.50 45.98 LIG-0.40  OA
ATOM     24 HG   SER B   4      57.531  37.488   9.084  0.50 45.98 LIG 0.21  HD
ENDBRANCH 22 23
ENDBRANCH 18 22
ENDBRANCH 15 18
ENDBRANCH 1 14
BRANCH 1 25
ATOM     25  N   ARG B   3      53.964  42.829   7.455  0.50 45.48 LIG-0.35  N 
ATOM     26 H    ARG B   3      53.751  42.970   6.634  0.50 45.48 LIG 0.16  HD
ATOM     27  C   ALA B   2      53.752  43.655   8.473  0.50 45.44 LIG 0.24  C 
ATOM     28 O    ALA B   2      53.994  43.319   9.628  0.50 45.54 LIG-0.27  OA
BRANCH 27 29
ATOM     29  CA  ALA B   2      53.189  45.040   8.205  0.50 45.45 LIG 0.17  C 
ATOM     30  CB  ALA B   2      54.239  46.074   8.371  0.50 45.48 LIG 0.04  C 
BRANCH 29 31
ATOM     31  N   ALA B   2      52.206  45.232   9.238  0.50 45.47 LIG-0.35  N 
ATOM     32 H    ALA B   2      52.547  45.410  10.007  0.50 45.47 LIG 0.16  HD
ATOM     33  C   VAL B   1      50.904  45.144   9.033  0.50 45.44 LIG 0.25  C 
ATOM     34 O    VAL B   1      50.389  45.150   7.916  0.50 45.56 LIG-0.27  OA
BRANCH 33 35
ATOM     35  CA  VAL B   1      50.070  45.198  10.303  0.50 45.37 LIG 0.28  C 
BRANCH 35 36
ATOM     36  CB  VAL B   1      48.980  44.105  10.301  0.50 45.32 LIG 0.02  C 
ATOM     37  CG2 VAL B   1      48.240  44.038  11.647  0.50 45.23 LIG 0.01  C 
ATOM     38  CG1 VAL B   1      49.589  42.781   9.918  0.50 45.24 LIG 0.01  C 
ENDBRANCH 35 36
BRANCH 35 39
ATOM     39  N   VAL B   1      49.484  46.557  10.476  0.50 45.40 LIG-0.07  N 
ATOM     40 H3   VAL B   1      49.456  46.971   9.689  0.50 45.40 LIG 0.28  HD
ATOM     41 H1   VAL B   1      48.660  46.485  10.803  0.50 45.40 LIG 0.28  HD
ATOM     42 H2   VAL B   1      49.987  47.027  11.040  0.50 45.40 LIG 0.28  HD
ENDBRANCH 35 39
ENDBRANCH 33 35
ENDBRANCH 29 31
ENDBRANCH 27 29
ENDBRANCH 1 25
TORSDOF 15
ENDMDL
MODEL 2
USER: ADFR SOLUTION from run 131
USER: SCORE 9.494000 LL:  -2.288 LR:  -8.874 RR:   0.000 FEB:  -4.399
USER: RMSD 2.576003
USER: SEED 130
USER: STATUS no improvement in best 4 clusters for 5 generations
USER: GENES 17
USER: genes 0 Translation |==|  0.53908 0.50778 0.47021
USER: genes 1 Rotation |==|  0.50020 0.52670 0.43777 0.99539
USER: genes 2 Torsion [C]-CA--CB-[CG] |==|  0.25524
USER: genes 3 Torsion [CA]-CB--CG-[CD] |==|  0.40353
USER: genes 4 Torsion [CB]-CG--CD-[NE] |==|  0.22035
USER: genes 5 Torsion [CG]-CD--NE-[CZ] |==|  0.48350
USER: genes 6 Torsion [N]-CA--C-[N] |==|  0.98294
USER: genes 7 Torsion [C]-N--CA-[CB] |==|  0.26439
USER: genes 8 Torsion [N]-CA--C-[OXT] |==|  0.01171
USER: genes 9 Torsion [N]-CA--CB-[OG] |==|  0.70936
USER: genes 10 Torsion [CA]-CB--OG-[HG] |==|  0.50858
USER: genes 11 Torsion [CB]-CA--N-[C] |==|  0.38566
USER: genes 12 Torsion [N]-C--CA-[N] |==|  0.39693
USER: genes 13 Torsion [C]-CA--N-[C] |==|  0.74039
USER: genes 14 Torsion [N]-C--CA-[N] |==|  0.26486
USER: genes 15 Torsion [C]-CA--CB-[CG2] |==|  0.47736
USER: genes 16 Torsion [C]-CA--N-[H1] |==|  0.39340
ROOT
ATOM      1  CA  ARG B   3      54.402  41.623   7.686  0.50 45.43 LIG 0.18  C 
ENDROOT
BRANCH 1 2
ATOM      2  CB  ARG B   3      53.820  40.580   6.771  0.50 45.40 LIG 0.04  C 
BRANCH 2 3
ATOM      3  CG  ARG B   3      53.551  39.321   7.523  0.50 45.00 LIG 0.02  C 
BRANCH 3 4
ATOM      4  CD  ARG B   3      52.334  38.633   7.018  0.50 44.41 LIG 0.14  C 
BRANCH 4 5
ATOM      5  NE  ARG B   3      52.664  37.909   5.804  0.50 44.18 LIG-0.23  N 
ATOM      6  CZ  ARG B   3      51.827  37.106   5.176  0.50 43.75 LIG 0.67  C 
ATOM      7  NH1 ARG B   3      52.216  36.478   4.083  0.50 44.03 LIG-0.23  N 
ATOM      8  NH2 ARG B   3      50.599  36.931   5.637  0.50 43.85 LIG-0.23  N 
ATOM      9 12HH ARG B   3      51.672  35.954   3.672  0.50 44.03 LIG 0.17  HD
ATOM     10 11HH ARG B   3      53.013  36.592   3.782  0.50 44.03 LIG 0.17  HD
ATOM     11 22HH ARG B   3      50.056  36.407   5.225  0.50 43.85 LIG 0.17  HD
ATOM     12 21HH ARG B   3      50.344  37.341   6.349  0.50 43.85 LIG 0.17  HD
ATOM     13 HE   ARG B   3      53.452  38.009   5.474  0.50 44.18 LIG 0.18  HD
ENDBRANCH 4 5
ENDBRANCH 3 4
ENDBRANCH 2 3
ENDBRANCH 1 2
BRANCH 1 14
ATOM     14  C   ARG B   3      55.919  41.557   7.666  0.50 45.62 LIG 0.24  C 
ATOM     15  N   SER B   4      56.514  42.694   7.323  0.50 45.72 LIG-0.34  N 
ATOM     16 H    SER B   4      56.092  43.430   7.179  0.50 45.72 LIG 0.16  HD
ATOM     17 O    ARG B   3      56.526  40.528   7.963  0.50 45.72 LIG-0.27  OA
BRANCH 15 18
ATOM     18  CA  SER B   4      57.954  42.789   7.161  0.50 45.84 LIG 0.21  C 
BRANCH 18 19
ATOM     19  C   SER B   4      58.510  44.118   7.659  0.50 45.90 LIG 0.20  C 
ATOM     20 O    SER B   4      59.704  44.392   7.532  0.50 45.95 LIG-0.65  OA
ATOM     21 OXT  SER B   4      57.783  44.947   8.206  0.50 46.05 LIG-0.65  OA
ENDBRANCH 18 19
BRANCH 18 22
ATOM     22  CB  SER B   4      58.301  42.599   5.687  0.50 45.85 LIG 0.20  C 
BRANCH 22 23
ATOM     23 OG   SER B   4      58.845  41.311   5.456  0.50 45.98 LIG-0.40  OA
ATOM     24 HG   SER B   4      59.068  41.241   4.649  0.50 45.98 LIG 0.21  HD
ENDBRANCH 22 23
ENDBRANCH 18 22
ENDBRANCH 15 18
ENDBRANCH 1 14
BRANCH 1 25
ATOM     25  N   ARG B   3      53.849  42.955   7.465  0.50 45.48 LIG-0.35  N 
ATOM     26 H    ARG B   3      53.730  43.189   6.646  0.50 45.48 LIG 0.16  HD
ATOM     27  C   ALA B   2      53.578  43.690   8.538  0.50 45.44 LIG 0.24  C 
ATOM     28 O    ALA B   2      53.683  43.227   9.669  0.50 45.54 LIG-0.27  OA
BRANCH 27 29
ATOM     29  CA  ALA B   2      53.120  45.127   8.362  0.50 45.45 LIG 0.17  C 
ATOM     30  CB  ALA B   2      54.240  46.068   8.606  0.50 45.48 LIG 0.04  C 
BRANCH 29 31
ATOM     31  N   ALA B   2      52.142  45.319   9.399  0.50 45.47 LIG-0.35  N 
ATOM     32 H    ALA B   2      52.482  45.561  10.150  0.50 45.47 LIG 0.16  HD
ATOM     33  C   VAL B   1      50.844  45.144   9.220  0.50 45.44 LIG 0.25  C 
ATOM     34 O    VAL B   1      50.316  45.056   8.114  0.50 45.56 LIG-0.27  OA
BRANCH 33 35
ATOM     35  CA  VAL B   1      50.026  45.221  10.499  0.50 45.37 LIG 0.28  C 
BRANCH 35 36
ATOM     36  CB  VAL B   1      48.905  44.159  10.508  0.50 45.32 LIG 0.02  C 
ATOM     37  CG2 VAL B   1      48.200  44.089  11.872  0.50 45.23 LIG 0.01  C 
ATOM     38  CG1 VAL B   1      49.467  42.825  10.087  0.50 45.24 LIG 0.01  C 
ENDBRANCH 35 36
BRANCH 35 39
ATOM     39  N   VAL B   1      49.480  46.595  10.678  0.50 45.40 LIG-0.07  N 
ATOM     40 H3   VAL B   1      49.460  47.012   9.891  0.50 45.40 LIG 0.28  HD
ATOM     41 H1   VAL B   1      48.655  46.546  11.008  0.50 45.40 LIG 0.28  HD
ATOM     42 H2   VAL B   1      49.998  47.050  11.240  0.50 45.40 LIG 0.28  HD
ENDBRANCH 35 39
ENDBRANCH 33 35
ENDBRANCH 29 31
ENDBRANCH 27 29
ENDBRANCH 1 25
TORSDOF 15
ENDMDL
MODEL 3
USER: ADFR SOLUTION from run 111
USER: SCORE 9.149164 LL:  -2.377 LR:  -8.736 RR:   0.000 FEB:  -4.261
USER: RMSD 1.628019
USER: SEED 110
USER: STATUS no improvement in best 3 clusters for 5 generations
USER: GENES 17
USER: genes 0 Translation |==|  0.51833 0.46791 0.47489
USER: genes 1 Rotation |==|  0.47573 0.53485 0.39649 0.98732
USER: genes 2 Torsion [C]-CA--CB-[CG] |==|  0.20783
USER: genes 3 Torsion [CA]-CB--CG-[CD] |==|  0.48297
USER: genes 4 Torsion [CB]-CG--CD-[NE] |==|  0.27166
USER: genes 5 Torsion [CG]-CD--NE-[CZ] |==|  0.26224
USER: genes 6 Torsion [N]-CA--C-[N] |==|  0.33219
USER: genes 7 Torsion [C]-N--CA-[CB] |==|  0.19626
USER: genes 8 Torsion [N]-CA--C-[OXT] |==|  0.96879
USER: genes 9 Torsion [N]-CA--CB-[OG] |==|  0.11572
USER: genes 10 Torsion [CA]-CB--OG-[HG] |==|  0.19866
USER: genes 11 Torsion [CB]-CA--N-[C] |==|  0.34416
USER: genes 12 Torsion [N]-C--CA-[N] |==|  0.44115
USER: genes 13 Torsion [C]-CA--N-[C] |==|  0.67804
USER: genes 14 Torsion [N]-C--CA-[N] |==|  0.33553
USER: genes 15 Torsion [C]-CA--CB-[CG2] |==|  0.46782
USER: genes 16 Torsion [C]-CA--N-[H1] |==|  0.39047
ROOT
ATOM      1  CA  ARG B   3      53.780  40.427   7.827  0.50 45.43 LIG 0.18  C 
ENDROOT
BRANCH 1 2
ATOM      2  CB  ARG B   3      52.990  39.410   7.048  0.50 45.40 LIG 0.04  C 
BRANCH 2 3
ATOM      3  CG  ARG B   3      52.918  38.124   7.799  0.50 45.00 LIG 0.02  C 
BRANCH 3 4
ATOM      4  CD  ARG B   3      52.023  37.148   7.125  0.50 44.41 LIG 0.14  C 
BRANCH 4 5
ATOM      5  NE  ARG B   3      52.824  36.234   6.330  0.50 44.18 LIG-0.23  N 
ATOM      6  CZ  ARG B   3      53.246  35.061   6.759  0.50 43.75 LIG 0.67  C 
ATOM      7  NH1 ARG B   3      53.980  34.300   5.972  0.50 44.03 LIG-0.23  N 
ATOM      8  NH2 ARG B   3      52.933  34.645   7.976  0.50 43.85 LIG-0.23  N 
ATOM      9 12HH ARG B   3      54.257  33.534   6.249  0.50 44.03 LIG 0.17  HD
ATOM     10 11HH ARG B   3      54.183  34.569   5.180  0.50 44.03 LIG 0.17  HD
ATOM     11 22HH ARG B   3      53.210  33.880   8.253  0.50 43.85 LIG 0.17  HD
ATOM     12 21HH ARG B   3      52.453  35.140   8.491  0.50 43.85 LIG 0.17  HD
ATOM     13 HE   ARG B   3      53.035  36.472   5.531  0.50 44.18 LIG 0.18  HD
ENDBRANCH 4 5
ENDBRANCH 3 4
ENDBRANCH 2 3
ENDBRANCH 1 2
BRANCH 1 14
ATOM     14  C   ARG B   3      55.263  40.112   7.756  0.50 45.62 LIG 0.24  C 
ATOM     15  N   SER B   4      55.794  39.710   8.905  0.50 45.72 LIG-0.34  N 
ATOM     16 H    SER B   4      55.339  39.578   9.623  0.50 45.72 LIG 0.16  HD
ATOM     17 O    ARG B   3      55.897  40.211   6.705  0.50 45.72 LIG-0.27  OA
BRANCH 15 18
ATOM     18  CA  SER B   4      57.217  39.454   9.046  0.50 45.84 LIG 0.21  C 
BRANCH 18 19
ATOM     19  C   SER B   4      57.551  38.714  10.336  0.50 45.90 LIG 0.20  C 
ATOM     20 O    SER B   4      58.670  38.232  10.517  0.50 45.95 LIG-0.65  OA
ATOM     21 OXT  SER B   4      56.712  38.575  11.224  0.50 46.05 LIG-0.65  OA
ENDBRANCH 18 19
BRANCH 18 22
ATOM     22  CB  SER B   4      57.967  40.783   8.998  0.50 45.85 LIG 0.20  C 
BRANCH 22 23
ATOM     23 OG   SER B   4      57.285  41.777   9.744  0.50 45.98 LIG-0.40  OA
ATOM     24 HG   SER B   4      57.358  41.611  10.564  0.50 45.98 LIG 0.21  HD
ENDBRANCH 22 23
ENDBRANCH 18 22
ENDBRANCH 15 18
ENDBRANCH 1 14
BRANCH 1 25
ATOM     25  N   ARG B   3      53.435  41.804   7.488  0.50 45.48 LIG-0.35  N 
ATOM     26 H    ARG B   3      53.503  42.023   6.659  0.50 45.48 LIG 0.16  HD
ATOM     27  C   ALA B   2      53.046  42.597   8.479  0.50 45.44 LIG 0.24  C 
ATOM     28 O    ALA B   2      52.876  42.163   9.614  0.50 45.54 LIG-0.27  OA
BRANCH 27 29
ATOM     29  CA  ALA B   2      52.797  44.070   8.202  0.50 45.45 LIG 0.17  C 
ATOM     30  CB  ALA B   2      54.061  44.841   8.289  0.50 45.48 LIG 0.04  C 
BRANCH 29 31
ATOM     31  N   ALA B   2      51.940  44.495   9.277  0.50 45.47 LIG-0.35  N 
ATOM     32 H    ALA B   2      52.312  44.447  10.051  0.50 45.47 LIG 0.16  HD
ATOM     33  C   VAL B   1      50.702  44.920   9.101  0.50 45.44 LIG 0.25  C 
ATOM     34 O    VAL B   1      50.243  45.242   8.006  0.50 45.56 LIG-0.27  OA
BRANCH 33 35
ATOM     35  CA  VAL B   1      49.929  45.136  10.391  0.50 45.37 LIG 0.28  C 
BRANCH 35 36
ATOM     36  CB  VAL B   1      48.743  44.155  10.502  0.50 45.32 LIG 0.02  C 
ATOM     37  CG2 VAL B   1      48.129  44.162  11.911  0.50 45.23 LIG 0.01  C 
ATOM     38  CG1 VAL B   1      49.182  42.777  10.077  0.50 45.24 LIG 0.01  C 
ENDBRANCH 35 36
BRANCH 35 39
ATOM     39  N   VAL B   1      49.480  46.553  10.490  0.50 45.40 LIG-0.07  N 
ATOM     40 H3   VAL B   1      49.479  46.922   9.680  0.50 45.40 LIG 0.28  HD
ATOM     41 H1   VAL B   1      48.658  46.581  10.830  0.50 45.40 LIG 0.28  HD
ATOM     42 H2   VAL B   1      50.035  47.005  11.020  0.50 45.40 LIG 0.28  HD
ENDBRANCH 35 39
ENDBRANCH 33 35
ENDBRANCH 29 31
ENDBRANCH 27 29
ENDBRANCH 1 25
TORSDOF 15
ENDMDL
MODEL 4
USER: ADFR SOLUTION from run 159
USER: SCORE 9.286055 LL:  -1.980 LR:  -8.729 RR:   0.000 FEB:  -4.254
USER: RMSD 2.155027
USER: SEED 158
USER: STATUS no improvement in best 3 clusters for 5 generations
USER: GENES 17
USER: genes 0 Translation |==|  0.54098 0.47461 0.47199
USER: genes 1 Rotation |==|  0.46177 0.56244 0.48639 0.99442
USER: genes 2 Torsion [C]-CA--CB-[CG] |==|  0.27586
USER: genes 3 Torsion [CA]-CB--CG-[CD] |==|  0.40555
USER: genes 4 Torsion [CB]-CG--CD-[NE] |==|  0.23415
USER: genes 5 Torsion [CG]-CD--NE-[CZ] |==|  0.27735
USER: genes 6 Torsion [N]-CA--C-[N] |==|  0.44130
USER: genes 7 Torsion [C]-N--CA-[CB] |==|  0.82820
USER: genes 8 Torsion [N]-CA--C-[OXT] |==|  0.19036
USER: genes 9 Torsion [N]-CA--CB-[OG] |==|  0.71487
USER: genes 10 Torsion [CA]-CB--OG-[HG] |==|  0.18355
USER: genes 11 Torsion [CB]-CA--N-[C] |==|  0.27992
USER: genes 12 Torsion [N]-C--CA-[N] |==|  0.48888
USER: genes 13 Torsion [C]-CA--N-[C] |==|  0.57978
USER: genes 14 Torsion [N]-C--CA-[N] |==|  0.43972
USER: genes 15 Torsion [C]-CA--CB-[CG2] |==|  0.00935
USER: genes 16 Torsion [C]-CA--N-[H1] |==|  0.50548
ROOT
ATOM      1  CA  ARG B   3      54.459  40.628   7.740  0.50 45.43 LIG 0.18  C 
ENDROOT
BRANCH 1 2
ATOM      2  CB  ARG B   3      53.979  39.377   7.055  0.50 45.40 LIG 0.04  C 
BRANCH 2 3
ATOM      3  CG  ARG B   3      53.922  38.244   8.022  0.50 45.00 LIG 0.02  C 
BRANCH 3 4
ATOM      4  CD  ARG B   3      52.797  37.322   7.718  0.50 44.41 LIG 0.14  C 
BRANCH 4 5
ATOM      5  NE  ARG B   3      53.219  36.371   6.705  0.50 44.18 LIG-0.23  N 
ATOM      6  CZ  ARG B   3      53.605  35.139   6.969  0.50 43.75 LIG 0.67  C 
ATOM      7  NH1 ARG B   3      53.984  34.345   5.986  0.50 44.03 LIG-0.23  N 
ATOM      8  NH2 ARG B   3      53.610  34.694   8.216  0.50 43.85 LIG-0.23  N 
ATOM      9 12HH ARG B   3      54.236  33.540   6.155  0.50 44.03 LIG 0.17  HD
ATOM     10 11HH ARG B   3      53.980  34.632   5.175  0.50 44.03 LIG 0.17  HD
ATOM     11 22HH ARG B   3      53.863  33.890   8.384  0.50 43.85 LIG 0.17  HD
ATOM     12 21HH ARG B   3      53.362  35.210   8.858  0.50 43.85 LIG 0.17  HD
ATOM     13 HE   ARG B   3      53.218  36.627   5.884  0.50 44.18 LIG 0.18  HD
ENDBRANCH 4 5
ENDBRANCH 3 4
ENDBRANCH 2 3
ENDBRANCH 1 2
BRANCH 1 14
ATOM     14  C   ARG B   3      55.936  40.847   7.467  0.50 45.62 LIG 0.24  C 
ATOM     15  N   SER B   4      56.742  39.999   8.096  0.50 45.72 LIG-0.34  N 
ATOM     16 H    SER B   4      56.465  39.341   8.574  0.50 45.72 LIG 0.16  HD
ATOM     17 O    ARG B   3      56.330  41.732   6.707  0.50 45.72 LIG-0.27  OA
BRANCH 15 18
ATOM     18  CA  SER B   4      58.188  40.118   8.025  0.50 45.84 LIG 0.21  C 
BRANCH 18 19
ATOM     19  C   SER B   4      58.691  41.448   8.574  0.50 45.90 LIG 0.20  C 
ATOM     20 O    SER B   4      59.194  42.291   7.828  0.50 45.95 LIG-0.65  OA
ATOM     21 OXT  SER B   4      58.615  41.711   9.772  0.50 46.05 LIG-0.65  OA
ENDBRANCH 18 19
BRANCH 18 22
ATOM     22  CB  SER B   4      58.629  39.953   6.572  0.50 45.85 LIG 0.20  C 
BRANCH 22 23
ATOM     23 OG   SER B   4      59.165  38.660   6.348  0.50 45.98 LIG-0.40  OA
ATOM     24 HG   SER B   4      58.559  38.086   6.439  0.50 45.98 LIG 0.21  HD
ENDBRANCH 22 23
ENDBRANCH 18 22
ENDBRANCH 15 18
ENDBRANCH 1 14
BRANCH 1 25
ATOM     25  N   ARG B   3      53.614  41.788   7.476  0.50 45.48 LIG-0.35  N 
ATOM     26 H    ARG B   3      53.728  42.181   6.720  0.50 45.48 LIG 0.16  HD
ATOM     27  C   ALA B   2      52.747  42.138   8.418  0.50 45.44 LIG 0.24  C 
ATOM     28 O    ALA B   2      52.582  41.450   9.421  0.50 45.54 LIG-0.27  OA
BRANCH 27 29
ATOM     29  CA  ALA B   2      51.933  43.410   8.249  0.50 45.45 LIG 0.17  C 
ATOM     30  CB  ALA B   2      52.806  44.606   8.332  0.50 45.48 LIG 0.04  C 
BRANCH 29 31
ATOM     31  N   ALA B   2      51.049  43.422   9.384  0.50 45.47 LIG-0.35  N 
ATOM     32 H    ALA B   2      51.371  43.021  10.073  0.50 45.47 LIG 0.16  HD
ATOM     33  C   VAL B   1      49.858  43.993   9.376  0.50 45.44 LIG 0.25  C 
ATOM     34 O    VAL B   1      49.488  44.783   8.509  0.50 45.56 LIG-0.27  OA
BRANCH 33 35
ATOM     35  CA  VAL B   1      49.029  43.718  10.620  0.50 45.37 LIG 0.28  C 
BRANCH 35 36
ATOM     36  CB  VAL B   1      48.416  42.302  10.581  0.50 45.32 LIG 0.02  C 
ATOM     37  CG2 VAL B   1      48.872  41.519   9.339  0.50 45.23 LIG 0.01  C 
ATOM     38  CG1 VAL B   1      46.915  42.396  10.678  0.50 45.24 LIG 0.01  C 
ENDBRANCH 35 36
BRANCH 35 39
ATOM     39  N   VAL B   1      47.982  44.765  10.781  0.50 45.40 LIG-0.07  N 
ATOM     40 H3   VAL B   1      47.430  44.744  10.082  0.50 45.40 LIG 0.28  HD
ATOM     41 H1   VAL B   1      47.521  44.612  11.527  0.50 45.40 LIG 0.28  HD
ATOM     42 H2   VAL B   1      48.367  45.566  10.830  0.50 45.40 LIG 0.28  HD
ENDBRANCH 35 39
ENDBRANCH 33 35
ENDBRANCH 29 31
ENDBRANCH 27 29
ENDBRANCH 1 25
TORSDOF 15
ENDMDL
MODEL 5
USER: ADFR SOLUTION from run 39
USER: SCORE 9.149535 LL:  -2.350 LR:  -8.253 RR:   0.000 FEB:  -3.779
USER: RMSD 1.707659
USER: SEED 38
USER: STATUS no improvement in best 4 clusters for 5 generations
USER: GENES 17
USER: genes 0 Translation |==|  0.57984 0.47608 0.46859
USER: genes 1 Rotation |==|  0.51899 0.55626 0.37894 0.98148
USER: genes 2 Torsion [C]-CA--CB-[CG] |==|  0.33685
USER: genes 3 Torsion [CA]-CB--CG-[CD] |==|  0.43050
USER: genes 4 Torsion [CB]-CG--CD-[NE] |==|  0.17127
USER: genes 5 Torsion [CG]-CD--NE-[CZ] |==|  0.40598
USER: genes 6 Torsion [N]-CA--C-[N] |==|  0.30591
USER: genes 7 Torsion [C]-N--CA-[CB] |==|  0.17168
USER: genes 8 Torsion [N]-CA--C-[OXT] |==|  0.05219
USER: genes 9 Torsion [N]-CA--CB-[OG] |==|  0.09435
USER: genes 10 Torsion [CA]-CB--OG-[HG] |==|  0.37605
USER: genes 11 Torsion [CB]-CA--N-[C] |==|  0.27758
USER: genes 12 Torsion [N]-C--CA-[N] |==|  0.42336
USER: genes 13 Torsion [C]-CA--N-[C] |==|  0.64115
USER: genes 14 Torsion [N]-C--CA-[N] |==|  0.42028
USER: genes 15 Torsion [C]-CA--CB-[CG2] |==|  0.32588
USER: genes 16 Torsion [C]-CA--N-[H1] |==|  0.13851
ROOT
ATOM      1  CA  ARG B   3      55.625  40.672   7.638  0.50 45.43 LIG 0.18  C 
ENDROOT
BRANCH 1 2
ATOM      2  CB  ARG B   3      54.715  39.884   6.735  0.50 45.40 LIG 0.04  C 
BRANCH 2 3
ATOM      3  CG  ARG B   3      53.706  39.137   7.539  0.50 45.00 LIG 0.02  C 
BRANCH 3 4
ATOM      4  CD  ARG B   3      52.480  38.853   6.749  0.50 44.41 LIG 0.14  C 
BRANCH 4 5
ATOM      5  NE  ARG B   3      52.826  38.019   5.612  0.50 44.18 LIG-0.23  N 
ATOM      6  CZ  ARG B   3      52.031  37.096   5.108  0.50 43.75 LIG 0.67  C 
ATOM      7  NH1 ARG B   3      52.433  36.374   4.080  0.50 44.03 LIG-0.23  N 
ATOM      8  NH2 ARG B   3      50.831  36.892   5.630  0.50 43.85 LIG-0.23  N 
ATOM      9 12HH ARG B   3      51.916  35.771   3.749  0.50 44.03 LIG 0.17  HD
ATOM     10 11HH ARG B   3      53.211  36.506   3.740  0.50 44.03 LIG 0.17  HD
ATOM     11 22HH ARG B   3      50.316  36.289   5.298  0.50 43.85 LIG 0.17  HD
ATOM     12 21HH ARG B   3      50.567  37.363   6.299  0.50 43.85 LIG 0.17  HD
ATOM     13 HE   ARG B   3      53.596  38.133   5.246  0.50 44.18 LIG 0.18  HD
ENDBRANCH 4 5
ENDBRANCH 3 4
ENDBRANCH 2 3
ENDBRANCH 1 2
BRANCH 1 14
ATOM     14  C   ARG B   3      57.068  40.250   7.433  0.50 45.62 LIG 0.24  C 
ATOM     15  N   SER B   4      57.664  39.782   8.524  0.50 45.72 LIG-0.34  N 
ATOM     16 H    SER B   4      57.263  39.667   9.276  0.50 45.72 LIG 0.16  HD
ATOM     17 O    ARG B   3      57.616  40.328   6.333  0.50 45.72 LIG-0.27  OA
BRANCH 15 18
ATOM     18  CA  SER B   4      59.070  39.419   8.536  0.50 45.84 LIG 0.21  C 
BRANCH 18 19
ATOM     19  C   SER B   4      59.505  38.818   9.867  0.50 45.90 LIG 0.20  C 
ATOM     20 O    SER B   4      60.696  38.765  10.179  0.50 45.95 LIG-0.65  OA
ATOM     21 OXT  SER B   4      58.682  38.365  10.660  0.50 46.05 LIG-0.65  OA
ENDBRANCH 18 19
BRANCH 18 22
ATOM     22  CB  SER B   4      59.906  40.659   8.226  0.50 45.85 LIG 0.20  C 
BRANCH 22 23
ATOM     23 OG   SER B   4      59.300  41.824   8.760  0.50 45.98 LIG-0.40  OA
ATOM     24 HG   SER B   4      59.883  42.296   9.136  0.50 45.98 LIG 0.21  HD
ENDBRANCH 22 23
ENDBRANCH 18 22
ENDBRANCH 15 18
ENDBRANCH 1 14
BRANCH 1 25
ATOM     25  N   ARG B   3      55.397  42.112   7.568  0.50 45.48 LIG-0.35  N 
ATOM     26 H    ARG B   3      55.750  42.524   6.900  0.50 45.48 LIG 0.16  HD
ATOM     27  C   ALA B   2      54.670  42.662   8.533  0.50 45.44 LIG 0.24  C 
ATOM     28 O    ALA B   2      54.118  41.975   9.386  0.50 45.54 LIG-0.27  OA
BRANCH 27 29
ATOM     29  CA  ALA B   2      54.508  44.172   8.576  0.50 45.45 LIG 0.17  C 
ATOM     30  CB  ALA B   2      55.562  44.788   9.418  0.50 45.48 LIG 0.04  C 
BRANCH 29 31
ATOM     31  N   ALA B   2      53.241  44.377   9.226  0.50 45.47 LIG-0.35  N 
ATOM     32 H    ALA B   2      53.162  43.947   9.966  0.50 45.47 LIG 0.16  HD
ATOM     33  C   VAL B   1      52.286  45.149   8.739  0.50 45.44 LIG 0.25  C 
ATOM     34 O    VAL B   1      52.465  45.965   7.836  0.50 45.56 LIG-0.27  OA
BRANCH 33 35
ATOM     35  CA  VAL B   1      50.971  45.065   9.497  0.50 45.37 LIG 0.28  C 
BRANCH 35 36
ATOM     36  CB  VAL B   1      50.120  43.874   9.007  0.50 45.32 LIG 0.02  C 
ATOM     37  CG2 VAL B   1      49.886  42.845  10.124  0.50 45.23 LIG 0.01  C 
ATOM     38  CG1 VAL B   1      50.760  43.260   7.789  0.50 45.24 LIG 0.01  C 
ENDBRANCH 35 36
BRANCH 35 39
ATOM     39  N   VAL B   1      50.230  46.352   9.384  0.50 45.40 LIG-0.07  N 
ATOM     40 H3   VAL B   1      50.652  46.980   9.854  0.50 45.40 LIG 0.28  HD
ATOM     41 H1   VAL B   1      50.190  46.598   8.530  0.50 45.40 LIG 0.28  HD
ATOM     42 H2   VAL B   1      49.405  46.249   9.702  0.50 45.40 LIG 0.28  HD
ENDBRANCH 35 39
ENDBRANCH 33 35
ENDBRANCH 29 31
ENDBRANCH 27 29
ENDBRANCH 1 25
TORSDOF 15
ENDMDL
MODEL 6
USER: ADFR SOLUTION from run 8
USER: SCORE 8.274557 LL:  -2.365 LR:  -7.303 RR:   0.000 FEB:  -2.829
USER: RMSD 1.882438
USER: SEED 387652
USER: STATUS no improvement in best 4 clusters for 5 generations
USER: GENES 17
USER: genes 0 Translation |==|  0.57395 0.51613 0.47914
USER: genes 1 Rotation |==|  0.42202 0.58165 0.51997 0.98668
USER: genes 2 Torsion [C]-CA--CB-[CG] |==|  0.39623
USER: genes 3 Torsion [CA]-CB--CG-[CD] |==|  0.29554
USER: genes 4 Torsion [CB]-CG--CD-[NE] |==|  0.08927
USER: genes 5 Torsion [CG]-CD--NE-[CZ] |==|  0.23382
USER: genes 6 Torsion [N]-CA--C-[N] |==|  0.31141
USER: genes 7 Torsion [C]-N--CA-[CB] |==|  0.22637
USER: genes 8 Torsion [N]-CA--C-[OXT] |==|  0.00920
USER: genes 9 Torsion [N]-CA--CB-[OG] |==|  0.02251
USER: genes 10 Torsion [CA]-CB--OG-[HG] |==|  0.52232
USER: genes 11 Torsion [CB]-CA--N-[C] |==|  0.26665
USER: genes 12 Torsion [N]-C--CA-[N] |==|  0.47903
USER: genes 13 Torsion [C]-CA--N-[C] |==|  0.58429
USER: genes 14 Torsion [N]-C--CA-[N] |==|  0.41681
USER: genes 15 Torsion [C]-CA--CB-[CG2] |==|  0.00900
USER: genes 16 Torsion [C]-CA--N-[H1] |==|  0.18327
ROOT
ATOM      1  CA  ARG B   3      55.449  41.874   7.954  0.50 45.43 LIG 0.18  C 
ENDROOT
BRANCH 1 2
ATOM      2  CB  ARG B   3      55.108  40.482   7.495  0.50 45.40 LIG 0.04  C 
BRANCH 2 3
ATOM      3  CG  ARG B   3      54.310  39.773   8.536  0.50 45.00 LIG 0.02  C 
BRANCH 3 4
ATOM      4  CD  ARG B   3      52.883  39.651   8.141  0.50 44.41 LIG 0.14  C 
BRANCH 4 5
ATOM      5  NE  ARG B   3      52.795  39.531   6.697  0.50 44.18 LIG-0.23  N 
ATOM      6  CZ  ARG B   3      52.929  38.393   6.044  0.50 43.75 LIG 0.67  C 
ATOM      7  NH1 ARG B   3      52.847  38.379   4.728  0.50 44.03 LIG-0.23  N 
ATOM      8  NH2 ARG B   3      53.145  37.267   6.705  0.50 43.85 LIG-0.23  N 
ATOM      9 12HH ARG B   3      52.934  37.638   4.299  0.50 44.03 LIG 0.17  HD
ATOM     10 11HH ARG B   3      52.706  39.109   4.297  0.50 44.03 LIG 0.17  HD
ATOM     11 22HH ARG B   3      53.232  36.527   6.276  0.50 43.85 LIG 0.17  HD
ATOM     12 21HH ARG B   3      53.197  37.275   7.563  0.50 43.85 LIG 0.17  HD
ATOM     13 HE   ARG B   3      52.646  40.244   6.239  0.50 44.18 LIG 0.18  HD
ENDBRANCH 4 5
ENDBRANCH 3 4
ENDBRANCH 2 3
ENDBRANCH 1 2
BRANCH 1 14
ATOM     14  C   ARG B   3      56.847  42.252   7.502  0.50 45.62 LIG 0.24  C 
ATOM     15  N   SER B   4      57.693  42.514   8.493  0.50 45.72 LIG-0.34  N 
ATOM     16 H    SER B   4      57.497  42.424   9.325  0.50 45.72 LIG 0.16  HD
ATOM     17 O    ARG B   3      57.155  42.290   6.311  0.50 45.72 LIG-0.27  OA
BRANCH 15 18
ATOM     18  CA  SER B   4      59.045  42.981   8.245  0.50 45.84 LIG 0.21  C 
BRANCH 18 19
ATOM     19  C   SER B   4      59.989  42.674   9.402  0.50 45.90 LIG 0.20  C 
ATOM     20 O    SER B   4      61.162  43.050   9.379  0.50 45.95 LIG-0.65  OA
ATOM     21 OXT  SER B   4      59.606  42.039  10.383  0.50 46.05 LIG-0.65  OA
ENDBRANCH 18 19
BRANCH 18 22
ATOM     22  CB  SER B   4      59.011  44.486   7.986  0.50 45.85 LIG 0.20  C 
BRANCH 22 23
ATOM     23 OG   SER B   4      57.720  45.015   8.243  0.50 45.98 LIG-0.40  OA
ATOM     24 HG   SER B   4      57.691  45.815   7.992  0.50 45.98 LIG 0.21  HD
ENDBRANCH 22 23
ENDBRANCH 18 22
ENDBRANCH 15 18
ENDBRANCH 1 14
BRANCH 1 25
ATOM     25  N   ARG B   3      54.418  42.855   7.628  0.50 45.48 LIG-0.35  N 
ATOM     26 H    ARG B   3      54.447  43.191   6.838  0.50 45.48 LIG 0.16  HD
ATOM     27  C   ALA B   2      53.530  43.143   8.572  0.50 45.44 LIG 0.24  C 
ATOM     28 O    ALA B   2      53.506  42.530   9.634  0.50 45.54 LIG-0.27  OA
BRANCH 27 29
ATOM     29  CA  ALA B   2      52.515  44.247   8.328  0.50 45.45 LIG 0.17  C 
ATOM     30  CB  ALA B   2      53.169  45.577   8.361  0.50 45.48 LIG 0.04  C 
BRANCH 29 31
ATOM     31  N   ALA B   2      51.619  44.162   9.452  0.50 45.47 LIG-0.35  N 
ATOM     32 H    ALA B   2      51.997  43.877  10.169  0.50 45.47 LIG 0.16  HD
ATOM     33  C   VAL B   1      50.341  44.490   9.393  0.50 45.44 LIG 0.25  C 
ATOM     34 O    VAL B   1      49.846  45.135   8.471  0.50 45.56 LIG-0.27  OA
BRANCH 33 35
ATOM     35  CA  VAL B   1      49.553  44.142  10.645  0.50 45.37 LIG 0.28  C 
BRANCH 35 36
ATOM     36  CB  VAL B   1      49.048  42.684  10.600  0.50 45.32 LIG 0.02  C 
ATOM     37  CG2 VAL B   1      49.543  41.950   9.344  0.50 45.23 LIG 0.01  C 
ATOM     38  CG1 VAL B   1      47.546  42.663  10.720  0.50 45.24 LIG 0.01  C 
ENDBRANCH 35 36
BRANCH 35 39
ATOM     39  N   VAL B   1      48.431  45.105  10.830  0.50 45.40 LIG-0.07  N 
ATOM     40 H3   VAL B   1      48.749  45.936  10.824  0.50 45.40 LIG 0.28  HD
ATOM     41 H1   VAL B   1      47.844  45.007  10.168  0.50 45.40 LIG 0.28  HD
ATOM     42 H2   VAL B   1      48.029  44.948  11.608  0.50 45.40 LIG 0.28  HD
ENDBRANCH 35 39
ENDBRANCH 33 35
ENDBRANCH 29 31
ENDBRANCH 27 29
ENDBRANCH 1 25
TORSDOF 15
ENDMDL
