MODEL 1
USER: ADFR SOLUTION from run 32
USER: SCORE 10.837637 LL:  -3.098 LR:  -9.868 RR:   0.000 FEB:  -3.007
USER: RMSD 3.260692
USER: SEED 31
USER: STATUS searching
USER: GENES 25
USER: genes 0 Translation |==|  0.51983 0.43406 0.42874
USER: genes 1 Rotation |==|  0.56899 0.53896 0.41485 0.98628
USER: genes 2 Torsion [C]-CA--N-[C] |==|  0.59305
USER: genes 3 Torsion [N]-C--CA-[N] |==|  0.30238
USER: genes 4 Torsion [C]-CA--CB-[CG] |==|  0.34871
USER: genes 5 Torsion [CA]-CB--CG-[CD1] |==|  0.75009
USER: genes 6 Torsion [C]-CA--N-[C] |==|  0.68255
USER: genes 7 Torsion [N]-C--CA-[N] |==|  0.01775
USER: genes 8 Torsion [C]-CA--CB-[CG] |==|  0.19268
USER: genes 9 Torsion [CA]-CB--CG-[CD2] |==|  0.61398
USER: genes 10 Torsion [C]-CA--N-[H2] |==|  0.95160
USER: genes 11 Torsion [N]-CA--CB-[OG] |==|  0.97064
USER: genes 12 Torsion [CA]-CB--OG-[HG] |==|  0.63770
USER: genes 13 Torsion [N]-CA--C-[N] |==|  0.80910
USER: genes 14 Torsion [C]-N--CA-[CB] |==|  0.27097
USER: genes 15 Torsion [N]-CA--CB-[CG2] |==|  0.47718
USER: genes 16 Torsion [CA]-CB--OG1-[HG1] |==|  0.85542
USER: genes 17 Torsion [N]-CA--C-[N] |==|  0.31057
USER: genes 18 Torsion [C]-N--CA-[C] |==|  0.77342
USER: genes 19 Torsion [N]-CA--C-[O] |==|  0.95061
USER: genes 20 Torsion [N]-CA--CB-[CG] |==|  0.48286
USER: genes 21 Torsion [CA]-CB--CG-[CD] |==|  0.42059
USER: genes 22 Torsion [CB]-CG--CD-[CE] |==|  0.37857
USER: genes 23 Torsion [CG]-CD--CE-[NZ] |==|  0.90943
USER: genes 24 Torsion [CD]-CE--NZ-[HZ2] |==|  0.83710
ROOT
ATOM      1  CA  SER I   3      46.625  29.842   7.632  0.30 32.02 LIG 0.20  C 
ENDROOT
BRANCH 1 2
ATOM      2  N   SER I   3      46.193  30.645   8.772  0.30 32.24 LIG-0.34  N 
ATOM      3 H    SER I   3      46.380  31.484   8.758  0.30 32.24 LIG 0.16  HD
ATOM      4  C   LEU I   2      45.551  29.988   9.713  0.30 32.50 LIG 0.24  C 
ATOM      5 O    LEU I   2      45.351  28.778   9.633  0.30 32.61 LIG-0.27  OA
BRANCH 4 6
ATOM      6  CA  LEU I   2      45.041  30.736  10.905  0.30 32.74 LIG 0.18  C 
BRANCH 6 7
ATOM      7  CB  LEU I   2      45.481  30.084  12.221  0.30 32.79 LIG 0.04  C 
BRANCH 7 8
ATOM      8  CG  LEU I   2      46.220  31.025  13.201  0.30 32.97 LIG-0.02  C 
ATOM      9  CD1 LEU I   2      47.715  30.988  12.940  0.30 33.23 LIG 0.01  C 
ATOM     10  CD2 LEU I   2      45.698  32.451  13.098  0.30 33.13 LIG 0.01  C 
ENDBRANCH 7 8
ENDBRANCH 6 7
BRANCH 6 11
ATOM     11  N   LEU I   2      43.656  30.636  10.547  0.30 32.86 LIG-0.35  N 
ATOM     12  C   PHE I   1      42.937  31.686  10.233  0.30 33.00 LIG 0.25  C 
ATOM     13 O    PHE I   1      43.317  32.837  10.436  0.30 33.06 LIG-0.27  OA
ATOM     14 H    LEU I   2      43.347  29.834  10.556  0.30 32.86 LIG 0.16  HD
BRANCH 12 15
ATOM     15  CA  PHE I   1      41.576  31.413   9.605  0.30 33.09 LIG 0.28  C 
BRANCH 15 16
ATOM     16  CB  PHE I   1      40.472  32.177  10.300  0.30 33.12 LIG 0.08  C 
BRANCH 16 17
ATOM     17  CG  PHE I   1      40.451  33.679  10.130  0.30 33.22 LIG-0.06  A 
ATOM     18  CD1 PHE I   1      40.719  34.340   8.921  0.30 33.33 LIG 0.01  A 
ATOM     19  CE1 PHE I   1      40.635  35.733   8.861  0.30 33.39 LIG 0.00  A 
ATOM     20  CZ  PHE I   1      40.298  36.455   9.986  0.30 33.40 LIG 0.00  A 
ATOM     21  CE2 PHE I   1      40.067  35.817  11.183  0.30 33.33 LIG 0.00  A 
ATOM     22  CD2 PHE I   1      40.153  34.452  11.245  0.30 33.29 LIG 0.01  A 
ENDBRANCH 16 17
ENDBRANCH 15 16
BRANCH 15 23
ATOM     23  N   PHE I   1      41.272  29.986   9.611  0.30 33.12 LIG-0.07  N 
ATOM     24 H2   PHE I   1      42.021  29.523   9.742  0.30 33.12 LIG 0.28  HD
ATOM     25 H1   PHE I   1      40.913  29.755   8.829  0.30 33.12 LIG 0.28  HD
ATOM     26 H3   PHE I   1      40.696  29.807  10.265  0.30 33.12 LIG 0.28  HD
ENDBRANCH 15 23
ENDBRANCH 12 15
ENDBRANCH 6 11
ENDBRANCH 4 6
ENDBRANCH 1 2
BRANCH 1 27
ATOM     27  CB  SER I   3      45.533  29.842   6.559  0.30 32.04 LIG 0.20  C 
BRANCH 27 28
ATOM     28 OG   SER I   3      44.333  30.405   7.055  0.30 32.08 LIG-0.40  OA
ATOM     29 HG   SER I   3      43.691  29.893   6.881  0.30 32.08 LIG 0.21  HD
ENDBRANCH 27 28
ENDBRANCH 1 27
BRANCH 1 30
ATOM     30  C   SER I   3      47.924  30.280   7.004  0.30 31.77 LIG 0.24  C 
ATOM     31  N   THR I   4      47.988  31.423   6.349  0.30 31.46 LIG-0.34  N 
ATOM     32 H    THR I   4      47.371  32.018   6.276  0.30 31.46 LIG 0.16  HD
ATOM     33 O    SER I   3      48.905  29.555   7.123  0.30 31.84 LIG-0.27  OA
BRANCH 31 34
ATOM     34  CA  THR I   4      49.242  31.679   5.691  0.30 31.16 LIG 0.20  C 
BRANCH 34 35
ATOM     35  CB  THR I   4      49.133  31.289   4.223  0.30 31.16 LIG 0.15  C 
ATOM     36  CG2 THR I   4      50.365  31.729   3.452  0.30 31.01 LIG 0.04  C 
BRANCH 35 37
ATOM     37 OG1  THR I   4      48.976  29.869   4.119  0.30 31.22 LIG-0.39  OA
ATOM     38 HG1  THR I   4      49.583  29.487   4.555  0.30 31.22 LIG 0.21  HD
ENDBRANCH 35 37
ENDBRANCH 34 35
BRANCH 34 39
ATOM     39  C   THR I   4      49.739  33.109   5.807  0.30 30.90 LIG 0.24  C 
ATOM     40  N   LYS I   5      50.818  33.270   6.537  0.30 30.59 LIG-0.35  N 
ATOM     41 H    LYS I   5      51.189  32.676   7.036  0.30 30.59 LIG 0.16  HD
ATOM     42 O    THR I   4      49.161  34.035   5.242  0.30 30.97 LIG-0.27  OA
BRANCH 40 43
ATOM     43  CA  LYS I   5      51.438  34.553   6.502  0.30 30.26 LIG 0.16  C 
BRANCH 43 44
ATOM     44  C   LYS I   5      52.279  34.552   5.238  0.30 30.28 LIG 0.22  C 
ATOM     45 O    LYS I   5      52.580  33.505   4.674  0.30 30.24 LIG-0.29  OA
ENDBRANCH 43 44
BRANCH 43 46
ATOM     46  CB  LYS I   5      52.350  34.814   7.681  0.30 30.11 LIG 0.03  C 
BRANCH 46 47
ATOM     47  CG  LYS I   5      53.124  36.112   7.574  0.30 29.43 LIG 0.00  C 
BRANCH 47 48
ATOM     48  CD  LYS I   5      53.439  36.670   8.940  0.30 28.58 LIG 0.03  C 
BRANCH 48 49
ATOM     49  CE  LYS I   5      54.877  37.161   8.992  0.30 28.11 LIG 0.23  C 
BRANCH 49 50
ATOM     50  NZ  LYS I   5      55.780  36.357   8.133  0.30 27.97 LIG-0.08  N 
ATOM     51 HZ1  LYS I   5      56.612  36.664   8.207  0.30 27.97 LIG 0.27  HD
ATOM     52 HZ2  LYS I   5      55.754  35.505   8.390  0.30 27.97 LIG 0.27  HD
ATOM     53 HZ3  LYS I   5      55.516  36.419   7.285  0.30 27.97 LIG 0.27  HD
ENDBRANCH 49 50
ENDBRANCH 48 49
ENDBRANCH 47 48
ENDBRANCH 46 47
ENDBRANCH 43 46
ENDBRANCH 40 43
ENDBRANCH 34 39
ENDBRANCH 31 34
ENDBRANCH 1 30
TORSDOF 23
ENDMDL
MODEL 2
USER: ADFR SOLUTION from run 9
USER: SCORE 9.917111 LL:  -2.944 LR:  -9.724 RR:   0.000 FEB:  -2.863
USER: RMSD 2.622972
USER: SEED 238243
USER: STATUS no improvement in best 7 clusters for 5 generations
USER: GENES 25
USER: genes 0 Translation |==|  0.53594 0.43128 0.42072
USER: genes 1 Rotation |==|  0.54563 0.56374 0.42142 0.98753
USER: genes 2 Torsion [C]-CA--N-[C] |==|  0.55273
USER: genes 3 Torsion [N]-C--CA-[N] |==|  0.43661
USER: genes 4 Torsion [C]-CA--CB-[CG] |==|  0.27357
USER: genes 5 Torsion [CA]-CB--CG-[CD1] |==|  0.76488
USER: genes 6 Torsion [C]-CA--N-[C] |==|  0.79733
USER: genes 7 Torsion [N]-C--CA-[N] |==|  0.91218
USER: genes 8 Torsion [C]-CA--CB-[CG] |==|  0.28997
USER: genes 9 Torsion [CA]-CB--CG-[CD2] |==|  0.66283
USER: genes 10 Torsion [C]-CA--N-[H2] |==|  0.99031
USER: genes 11 Torsion [N]-CA--CB-[OG] |==|  0.49253
USER: genes 12 Torsion [CA]-CB--OG-[HG] |==|  0.66627
USER: genes 13 Torsion [N]-CA--C-[N] |==|  0.76363
USER: genes 14 Torsion [C]-N--CA-[CB] |==|  0.33154
USER: genes 15 Torsion [N]-CA--CB-[CG2] |==|  0.47486
USER: genes 16 Torsion [CA]-CB--OG1-[HG1] |==|  0.82058
USER: genes 17 Torsion [N]-CA--C-[N] |==|  0.25944
USER: genes 18 Torsion [C]-N--CA-[C] |==|  0.80098
USER: genes 19 Torsion [N]-CA--C-[O] |==|  0.94988
USER: genes 20 Torsion [N]-CA--CB-[CG] |==|  0.54600
USER: genes 21 Torsion [CA]-CB--CG-[CD] |==|  0.44816
USER: genes 22 Torsion [CB]-CG--CD-[CE] |==|  0.33998
USER: genes 23 Torsion [CG]-CD--CE-[NZ] |==|  0.85314
USER: genes 24 Torsion [CD]-CE--NZ-[HZ2] |==|  0.81072
ROOT
ATOM      1  CA  SER I   3      47.108  29.758   7.392  0.30 32.02 LIG 0.20  C 
ENDROOT
BRANCH 1 2
ATOM      2  N   SER I   3      46.759  30.625   8.512  0.30 32.24 LIG-0.34  N 
ATOM      3 H    SER I   3      47.069  31.427   8.505  0.30 32.24 LIG 0.16  HD
ATOM      4  C   LEU I   2      45.993  30.078   9.431  0.30 32.50 LIG 0.24  C 
ATOM      5 O    LEU I   2      45.619  28.910   9.346  0.30 32.61 LIG-0.27  OA
BRANCH 4 6
ATOM      6  CA  LEU I   2      45.557  30.902  10.602  0.30 32.74 LIG 0.18  C 
BRANCH 6 7
ATOM      7  CB  LEU I   2      46.651  31.001  11.670  0.30 32.79 LIG 0.04  C 
BRANCH 7 8
ATOM      8  CG  LEU I   2      47.491  32.300  11.626  0.30 32.97 LIG-0.02  C 
ATOM      9  CD1 LEU I   2      48.624  32.159  10.624  0.30 33.23 LIG 0.01  C 
ATOM     10  CD2 LEU I   2      46.628  33.506  11.286  0.30 33.13 LIG 0.01  C 
ENDBRANCH 7 8
ENDBRANCH 6 7
BRANCH 6 11
ATOM     11  N   LEU I   2      44.403  30.106  10.906  0.30 32.86 LIG-0.35  N 
ATOM     12  C   PHE I   1      43.325  30.126  10.163  0.30 33.00 LIG 0.25  C 
ATOM     13 O    PHE I   1      43.129  30.974   9.295  0.30 33.06 LIG-0.27  OA
ATOM     14 H    LEU I   2      44.486  29.623  11.612  0.30 32.86 LIG 0.16  HD
BRANCH 12 15
ATOM     15  CA  PHE I   1      42.294  29.036  10.433  0.30 33.09 LIG 0.28  C 
BRANCH 15 16
ATOM     16  CB  PHE I   1      41.260  29.477  11.442  0.30 33.12 LIG 0.08  C 
BRANCH 16 17
ATOM     17  CG  PHE I   1      39.890  29.847  10.920  0.30 33.22 LIG-0.06  A 
ATOM     18  CD1 PHE I   1      39.065  28.980  10.187  0.30 33.33 LIG 0.01  A 
ATOM     19  CE1 PHE I   1      37.798  29.407   9.782  0.30 33.39 LIG 0.00  A 
ATOM     20  CZ  PHE I   1      37.365  30.678  10.094  0.30 33.40 LIG 0.00  A 
ATOM     21  CE2 PHE I   1      38.180  31.545  10.783  0.30 33.33 LIG 0.00  A 
ATOM     22  CD2 PHE I   1      39.424  31.130  11.177  0.30 33.29 LIG 0.01  A 
ENDBRANCH 16 17
ENDBRANCH 15 16
BRANCH 15 23
ATOM     23  N   PHE I   1      42.938  27.807  10.887  0.30 33.12 LIG-0.07  N 
ATOM     24 H2   PHE I   1      43.822  27.911  10.871  0.30 33.12 LIG 0.28  HD
ATOM     25 H1   PHE I   1      42.709  27.136  10.348  0.30 33.12 LIG 0.28  HD
ATOM     26 H3   PHE I   1      42.676  27.623  11.717  0.30 33.12 LIG 0.28  HD
ENDBRANCH 15 23
ENDBRANCH 12 15
ENDBRANCH 6 11
ENDBRANCH 4 6
ENDBRANCH 1 2
BRANCH 1 27
ATOM     27  CB  SER I   3      45.910  29.631   6.447  0.30 32.04 LIG 0.20  C 
BRANCH 27 28
ATOM     28 OG   SER I   3      46.236  28.845   5.316  0.30 32.08 LIG-0.40  OA
ATOM     29 HG   SER I   3      46.135  29.302   4.619  0.30 32.08 LIG 0.21  HD
ENDBRANCH 27 28
ENDBRANCH 1 27
BRANCH 1 30
ATOM     30  C   SER I   3      48.309  30.205   6.596  0.30 31.77 LIG 0.24  C 
ATOM     31  N   THR I   4      48.167  31.086   5.624  0.30 31.46 LIG-0.34  N 
ATOM     32 H    THR I   4      47.453  31.513   5.407  0.30 31.46 LIG 0.16  HD
ATOM     33 O    SER I   3      49.405  29.733   6.877  0.30 31.84 LIG-0.27  OA
BRANCH 31 34
ATOM     34  CA  THR I   4      49.357  31.343   4.857  0.30 31.16 LIG 0.20  C 
BRANCH 34 35
ATOM     35  CB  THR I   4      49.111  30.974   3.401  0.30 31.16 LIG 0.15  C 
ATOM     36  CG2 THR I   4      50.261  31.436   2.522  0.30 31.01 LIG 0.04  C 
BRANCH 35 37
ATOM     37 OG1  THR I   4      48.955  29.554   3.289  0.30 31.22 LIG-0.39  OA
ATOM     38 HG1  THR I   4      49.674  29.176   3.502  0.30 31.22 LIG 0.21  HD
ENDBRANCH 35 37
ENDBRANCH 34 35
BRANCH 34 39
ATOM     39  C   THR I   4      49.873  32.769   4.946  0.30 30.90 LIG 0.24  C 
ATOM     40  N   LYS I   5      50.783  32.979   5.868  0.30 30.59 LIG-0.35  N 
ATOM     41 H    LYS I   5      51.020  32.430   6.485  0.30 30.59 LIG 0.16  HD
ATOM     42 O    THR I   4      49.460  33.646   4.192  0.30 30.97 LIG-0.27  OA
BRANCH 40 43
ATOM     43  CA  LYS I   5      51.444  34.242   5.849  0.30 30.26 LIG 0.16  C 
BRANCH 43 44
ATOM     44  C   LYS I   5      52.353  34.194   4.634  0.30 30.28 LIG 0.22  C 
ATOM     45 O    LYS I   5      52.655  33.129   4.106  0.30 30.24 LIG-0.29  OA
ENDBRANCH 43 44
BRANCH 43 46
ATOM     46  CB  LYS I   5      52.297  34.494   7.073  0.30 30.11 LIG 0.03  C 
BRANCH 46 47
ATOM     47  CG  LYS I   5      52.677  35.949   7.259  0.30 29.43 LIG 0.00  C 
BRANCH 47 48
ATOM     48  CD  LYS I   5      53.116  36.218   8.677  0.30 28.58 LIG 0.03  C 
BRANCH 48 49
ATOM     49  CE  LYS I   5      54.526  36.787   8.695  0.30 28.11 LIG 0.23  C 
BRANCH 49 50
ATOM     50  NZ  LYS I   5      55.486  35.945   7.940  0.30 27.97 LIG-0.08  N 
ATOM     51 HZ1  LYS I   5      56.266  36.369   7.875  0.30 27.97 LIG 0.27  HD
ATOM     52 HZ2  LYS I   5      55.603  35.173   8.368  0.30 27.97 LIG 0.27  HD
ATOM     53 HZ3  LYS I   5      55.165  35.787   7.125  0.30 27.97 LIG 0.27  HD
ENDBRANCH 49 50
ENDBRANCH 48 49
ENDBRANCH 47 48
ENDBRANCH 46 47
ENDBRANCH 43 46
ENDBRANCH 40 43
ENDBRANCH 34 39
ENDBRANCH 31 34
ENDBRANCH 1 30
TORSDOF 23
ENDMDL
MODEL 3
USER: ADFR SOLUTION from run 119
USER: SCORE 10.254376 LL:  -2.985 LR:  -9.490 RR:   0.000 FEB:  -2.629
USER: RMSD 3.140559
USER: SEED 118
USER: STATUS no improvement in best 8 clusters for 5 generations
USER: GENES 25
USER: genes 0 Translation |==|  0.53406 0.43909 0.45818
USER: genes 1 Rotation |==|  0.49797 0.52945 0.47438 0.99847
USER: genes 2 Torsion [C]-CA--N-[C] |==|  0.56561
USER: genes 3 Torsion [N]-C--CA-[N] |==|  0.37240
USER: genes 4 Torsion [C]-CA--CB-[CG] |==|  0.14225
USER: genes 5 Torsion [CA]-CB--CG-[CD1] |==|  0.76410
USER: genes 6 Torsion [C]-CA--N-[C] |==|  0.72908
USER: genes 7 Torsion [N]-C--CA-[N] |==|  0.19428
USER: genes 8 Torsion [C]-CA--CB-[CG] |==|  0.18495
USER: genes 9 Torsion [CA]-CB--CG-[CD2] |==|  0.76631
USER: genes 10 Torsion [C]-CA--N-[H2] |==|  0.82218
USER: genes 11 Torsion [N]-CA--CB-[OG] |==|  0.36168
USER: genes 12 Torsion [CA]-CB--OG-[HG] |==|  0.68745
USER: genes 13 Torsion [N]-CA--C-[N] |==|  0.87246
USER: genes 14 Torsion [C]-N--CA-[CB] |==|  0.26972
USER: genes 15 Torsion [N]-CA--CB-[CG2] |==|  0.43750
USER: genes 16 Torsion [CA]-CB--OG1-[HG1] |==|  0.75750
USER: genes 17 Torsion [N]-CA--C-[N] |==|  0.34848
USER: genes 18 Torsion [C]-N--CA-[C] |==|  0.76612
USER: genes 19 Torsion [N]-CA--C-[O] |==|  0.94396
USER: genes 20 Torsion [N]-CA--CB-[CG] |==|  0.50367
USER: genes 21 Torsion [CA]-CB--CG-[CD] |==|  0.43613
USER: genes 22 Torsion [CB]-CG--CD-[CE] |==|  0.31568
USER: genes 23 Torsion [CG]-CD--CE-[NZ] |==|  0.84577
USER: genes 24 Torsion [CD]-CE--NZ-[HZ2] |==|  0.50653
ROOT
ATOM      1  CA  SER I   3      47.052  29.993   8.516  0.30 32.02 LIG 0.20  C 
ENDROOT
BRANCH 1 2
ATOM      2  N   SER I   3      46.366  30.929   9.401  0.30 32.24 LIG-0.34  N 
ATOM      3 H    SER I   3      46.449  31.768   9.231  0.30 32.24 LIG 0.16  HD
ATOM      4  C   LEU I   2      45.682  30.379  10.380  0.30 32.50 LIG 0.24  C 
ATOM      5 O    LEU I   2      45.645  29.161  10.538  0.30 32.61 LIG-0.27  OA
BRANCH 4 6
ATOM      6  CA  LEU I   2      44.919  31.261  11.320  0.30 32.74 LIG 0.18  C 
BRANCH 6 7
ATOM      7  CB  LEU I   2      45.635  31.417  12.666  0.30 32.79 LIG 0.04  C 
BRANCH 7 8
ATOM      8  CG  LEU I   2      47.122  31.835  12.569  0.30 32.97 LIG-0.02  C 
ATOM      9  CD1 LEU I   2      47.999  30.612  12.367  0.30 33.23 LIG 0.01  C 
ATOM     10  CD2 LEU I   2      47.343  32.839  11.448  0.30 33.13 LIG 0.01  C 
ENDBRANCH 7 8
ENDBRANCH 6 7
BRANCH 6 11
ATOM     11  N   LEU I   2      43.717  30.479  11.295  0.30 32.86 LIG-0.35  N 
ATOM     12  C   PHE I   1      42.702  30.781  10.523  0.30 33.00 LIG 0.25  C 
ATOM     13 O    PHE I   1      42.607  31.859   9.941  0.30 33.06 LIG-0.27  OA
ATOM     14 H    LEU I   2      43.727  29.804  11.826  0.30 32.86 LIG 0.16  HD
BRANCH 12 15
ATOM     15  CA  PHE I   1      41.615  29.722  10.386  0.30 33.09 LIG 0.28  C 
BRANCH 15 16
ATOM     16  CB  PHE I   1      40.670  30.030   9.248  0.30 33.12 LIG 0.08  C 
BRANCH 16 17
ATOM     17  CG  PHE I   1      41.229  29.977   7.844  0.30 33.22 LIG-0.06  A 
ATOM     18  CD1 PHE I   1      41.139  28.859   7.001  0.30 33.33 LIG 0.01  A 
ATOM     19  CE1 PHE I   1      41.655  28.926   5.705  0.30 33.39 LIG 0.00  A 
ATOM     20  CZ  PHE I   1      42.258  30.084   5.260  0.30 33.40 LIG 0.00  A 
ATOM     21  CE2 PHE I   1      42.380  31.173   6.092  0.30 33.33 LIG 0.00  A 
ATOM     22  CD2 PHE I   1      41.878  31.107   7.363  0.30 33.29 LIG 0.01  A 
ENDBRANCH 16 17
ENDBRANCH 15 16
BRANCH 15 23
ATOM     23  N   PHE I   1      40.865  29.576  11.629  0.30 33.12 LIG-0.07  N 
ATOM     24 H2   PHE I   1      41.406  29.277  12.270  0.30 33.12 LIG 0.28  HD
ATOM     25 H1   PHE I   1      40.201  28.996  11.509  0.30 33.12 LIG 0.28  HD
ATOM     26 H3   PHE I   1      40.530  30.365  11.869  0.30 33.12 LIG 0.28  HD
ENDBRANCH 15 23
ENDBRANCH 12 15
ENDBRANCH 6 11
ENDBRANCH 4 6
ENDBRANCH 1 2
BRANCH 1 27
ATOM     27  CB  SER I   3      46.060  29.432   7.492  0.30 32.04 LIG 0.20  C 
BRANCH 27 28
ATOM     28 OG   SER I   3      46.575  29.534   6.178  0.30 32.08 LIG-0.40  OA
ATOM     29 HG   SER I   3      46.120  30.088   5.741  0.30 32.08 LIG 0.21  HD
ENDBRANCH 27 28
ENDBRANCH 1 27
BRANCH 1 30
ATOM     30  C   SER I   3      48.236  30.568   7.780  0.30 31.77 LIG 0.24  C 
ATOM     31  N   THR I   4      48.140  31.745   7.192  0.30 31.46 LIG-0.34  N 
ATOM     32 H    THR I   4      47.476  32.290   7.222  0.30 31.46 LIG 0.16  HD
ATOM     33 O    SER I   3      49.276  29.919   7.748  0.30 31.84 LIG-0.27  OA
BRANCH 31 34
ATOM     34  CA  THR I   4      49.289  32.135   6.420  0.30 31.16 LIG 0.20  C 
BRANCH 34 35
ATOM     35  CB  THR I   4      49.052  31.804   4.953  0.30 31.16 LIG 0.15  C 
ATOM     36  CG2 THR I   4      49.932  32.656   4.055  0.30 31.01 LIG 0.04  C 
BRANCH 35 37
ATOM     37 OG1  THR I   4      49.326  30.416   4.728  0.30 31.22 LIG-0.39  OA
ATOM     38 HG1  THR I   4      50.143  30.316   4.558  0.30 31.22 LIG 0.21  HD
ENDBRANCH 35 37
ENDBRANCH 34 35
BRANCH 34 39
ATOM     39  C   THR I   4      49.681  33.596   6.560  0.30 30.90 LIG 0.24  C 
ATOM     40  N   LYS I   5      50.925  33.811   6.919  0.30 30.59 LIG-0.35  N 
ATOM     41 H    LYS I   5      51.488  33.219   7.188  0.30 30.59 LIG 0.16  HD
ATOM     42 O    THR I   4      48.876  34.498   6.340  0.30 30.97 LIG-0.27  OA
BRANCH 40 43
ATOM     43  CA  LYS I   5      51.393  35.156   6.859  0.30 30.26 LIG 0.16  C 
BRANCH 43 44
ATOM     44  C   LYS I   5      51.824  35.361   5.418  0.30 30.28 LIG 0.22  C 
ATOM     45 O    LYS I   5      52.079  34.409   4.688  0.30 30.24 LIG-0.29  OA
ENDBRANCH 43 44
BRANCH 43 46
ATOM     46  CB  LYS I   5      52.584  35.420   7.754  0.30 30.11 LIG 0.03  C 
BRANCH 46 47
ATOM     47  CG  LYS I   5      53.065  36.857   7.716  0.30 29.43 LIG 0.00  C 
BRANCH 47 48
ATOM     48  CD  LYS I   5      53.831  37.205   8.969  0.30 28.58 LIG 0.03  C 
BRANCH 48 49
ATOM     49  CE  LYS I   5      55.291  37.471   8.638  0.30 28.11 LIG 0.23  C 
BRANCH 49 50
ATOM     50  NZ  LYS I   5      55.925  36.335   7.925  0.30 27.97 LIG-0.08  N 
ATOM     51 HZ1  LYS I   5      55.515  36.207   7.146  0.30 27.97 LIG 0.27  HD
ATOM     52 HZ2  LYS I   5      56.784  36.518   7.782  0.30 27.97 LIG 0.27  HD
ATOM     53 HZ3  LYS I   5      55.857  35.599   8.421  0.30 27.97 LIG 0.27  HD
ENDBRANCH 49 50
ENDBRANCH 48 49
ENDBRANCH 47 48
ENDBRANCH 46 47
ENDBRANCH 43 46
ENDBRANCH 40 43
ENDBRANCH 34 39
ENDBRANCH 31 34
ENDBRANCH 1 30
TORSDOF 23
ENDMDL
MODEL 4
USER: ADFR SOLUTION from run 86
USER: SCORE 10.853690 LL:  -3.141 LR:  -9.359 RR:   0.000 FEB:  -2.498
USER: RMSD 4.341984
USER: SEED 85
USER: STATUS searching
USER: GENES 25
USER: genes 0 Translation |==|  0.52833 0.43598 0.44700
USER: genes 1 Rotation |==|  0.51022 0.56160 0.43244 0.99147
USER: genes 2 Torsion [C]-CA--N-[C] |==|  0.65207
USER: genes 3 Torsion [N]-C--CA-[N] |==|  0.45042
USER: genes 4 Torsion [C]-CA--CB-[CG] |==|  0.06251
USER: genes 5 Torsion [CA]-CB--CG-[CD1] |==|  0.26139
USER: genes 6 Torsion [C]-CA--N-[C] |==|  0.76432
USER: genes 7 Torsion [N]-C--CA-[N] |==|  0.19081
USER: genes 8 Torsion [C]-CA--CB-[CG] |==|  0.27249
USER: genes 9 Torsion [CA]-CB--CG-[CD2] |==|  0.64045
USER: genes 10 Torsion [C]-CA--N-[H2] |==|  0.75042
USER: genes 11 Torsion [N]-CA--CB-[OG] |==|  0.36650
USER: genes 12 Torsion [CA]-CB--OG-[HG] |==|  0.80285
USER: genes 13 Torsion [N]-CA--C-[N] |==|  0.86902
USER: genes 14 Torsion [C]-N--CA-[CB] |==|  0.24846
USER: genes 15 Torsion [N]-CA--CB-[CG2] |==|  0.45161
USER: genes 16 Torsion [CA]-CB--OG1-[HG1] |==|  0.84422
USER: genes 17 Torsion [N]-CA--C-[N] |==|  0.30442
USER: genes 18 Torsion [C]-N--CA-[C] |==|  0.72766
USER: genes 19 Torsion [N]-CA--C-[O] |==|  0.91603
USER: genes 20 Torsion [N]-CA--CB-[CG] |==|  0.51023
USER: genes 21 Torsion [CA]-CB--CG-[CD] |==|  0.49351
USER: genes 22 Torsion [CB]-CG--CD-[CE] |==|  0.27472
USER: genes 23 Torsion [CG]-CD--CE-[NZ] |==|  0.90662
USER: genes 24 Torsion [CD]-CE--NZ-[HZ2] |==|  0.10233
ROOT
ATOM      1  CA  SER I   3      46.880  29.899   8.180  0.30 32.02 LIG 0.20  C 
ENDROOT
BRANCH 1 2
ATOM      2  N   SER I   3      46.481  30.886   9.178  0.30 32.24 LIG-0.34  N 
ATOM      3 H    SER I   3      46.299  31.680   8.900  0.30 32.24 LIG 0.16  HD
ATOM      4  C   LEU I   2      46.440  30.449  10.418  0.30 32.50 LIG 0.24  C 
ATOM      5 O    LEU I   2      46.737  29.291  10.703  0.30 32.61 LIG-0.27  OA
BRANCH 4 6
ATOM      6  CA  LEU I   2      46.010  31.384  11.506  0.30 32.74 LIG 0.18  C 
BRANCH 6 7
ATOM      7  CB  LEU I   2      47.106  32.395  11.858  0.30 32.79 LIG 0.04  C 
BRANCH 7 8
ATOM      8  CG  LEU I   2      48.153  32.637  10.744  0.30 32.97 LIG-0.02  C 
ATOM      9  CD1 LEU I   2      47.756  33.836   9.901  0.30 33.23 LIG 0.01  C 
ATOM     10  CD2 LEU I   2      49.544  32.834  11.326  0.30 33.13 LIG 0.01  C 
ENDBRANCH 7 8
ENDBRANCH 6 7
BRANCH 6 11
ATOM     11  N   LEU I   2      45.725  30.355  12.463  0.30 32.86 LIG-0.35  N 
ATOM     12  C   PHE I   1      44.573  29.731  12.498  0.30 33.00 LIG 0.25  C 
ATOM     13 O    PHE I   1      43.586  30.122  11.878  0.30 33.06 LIG-0.27  OA
ATOM     14 H    LEU I   2      46.372  30.189  13.004  0.30 32.86 LIG 0.16  HD
BRANCH 12 15
ATOM     15  CA  PHE I   1      44.503  28.482  13.367  0.30 33.09 LIG 0.28  C 
BRANCH 15 16
ATOM     16  CB  PHE I   1      43.242  27.689  13.114  0.30 33.12 LIG 0.08  C 
BRANCH 16 17
ATOM     17  CG  PHE I   1      43.340  26.504  12.181  0.30 33.22 LIG-0.06  A 
ATOM     18  CD1 PHE I   1      44.307  25.493  12.289  0.30 33.33 LIG 0.01  A 
ATOM     19  CE1 PHE I   1      44.287  24.418  11.397  0.30 33.39 LIG 0.00  A 
ATOM     20  CZ  PHE I   1      43.326  24.356  10.410  0.30 33.40 LIG 0.00  A 
ATOM     21  CE2 PHE I   1      42.395  25.359  10.277  0.30 33.33 LIG 0.00  A 
ATOM     22  CD2 PHE I   1      42.415  26.416  11.148  0.30 33.29 LIG 0.01  A 
ENDBRANCH 16 17
ENDBRANCH 15 16
BRANCH 15 23
ATOM     23  N   PHE I   1      44.599  28.822  14.784  0.30 33.12 LIG-0.07  N 
ATOM     24 H2   PHE I   1      45.454  28.820  15.032  0.30 33.12 LIG 0.28  HD
ATOM     25 H1   PHE I   1      44.149  28.224  15.265  0.30 33.12 LIG 0.28  HD
ATOM     26 H3   PHE I   1      44.254  29.631  14.919  0.30 33.12 LIG 0.28  HD
ENDBRANCH 15 23
ENDBRANCH 12 15
ENDBRANCH 6 11
ENDBRANCH 4 6
ENDBRANCH 1 2
BRANCH 1 27
ATOM     27  CB  SER I   3      45.689  29.572   7.275  0.30 32.04 LIG 0.20  C 
BRANCH 27 28
ATOM     28 OG   SER I   3      46.059  29.620   5.911  0.30 32.08 LIG-0.40  OA
ATOM     29 HG   SER I   3      46.192  30.418   5.685  0.30 32.08 LIG 0.21  HD
ENDBRANCH 27 28
ENDBRANCH 1 27
BRANCH 1 30
ATOM     30  C   SER I   3      48.047  30.307   7.317  0.30 31.77 LIG 0.24  C 
ATOM     31  N   THR I   4      48.074  31.506   6.767  0.30 31.46 LIG-0.34  N 
ATOM     32 H    THR I   4      47.516  32.149   6.888  0.30 31.46 LIG 0.16  HD
ATOM     33 O    SER I   3      48.958  29.504   7.147  0.30 31.84 LIG-0.27  OA
BRANCH 31 34
ATOM     34  CA  THR I   4      49.174  31.739   5.869  0.30 31.16 LIG 0.20  C 
BRANCH 34 35
ATOM     35  CB  THR I   4      48.774  31.325   4.459  0.30 31.16 LIG 0.15  C 
ATOM     36  CG2 THR I   4      49.710  31.932   3.429  0.30 31.01 LIG 0.04  C 
BRANCH 35 37
ATOM     37 OG1  THR I   4      48.801  29.896   4.358  0.30 31.22 LIG-0.39  OA
ATOM     38 HG1  THR I   4      49.562  29.614   4.574  0.30 31.22 LIG 0.21  HD
ENDBRANCH 35 37
ENDBRANCH 34 35
BRANCH 34 39
ATOM     39  C   THR I   4      49.692  33.167   5.857  0.30 30.90 LIG 0.24  C 
ATOM     40  N   LYS I   5      50.877  33.338   6.397  0.30 30.59 LIG-0.35  N 
ATOM     41 H    LYS I   5      51.320  32.756   6.847  0.30 30.59 LIG 0.16  HD
ATOM     42 O    THR I   4      49.036  34.081   5.365  0.30 30.97 LIG-0.27  OA
BRANCH 40 43
ATOM     43  CA  LYS I   5      51.490  34.613   6.221  0.30 30.26 LIG 0.16  C 
BRANCH 43 44
ATOM     44  C   LYS I   5      52.448  34.434   5.057  0.30 30.28 LIG 0.22  C 
ATOM     45 O    LYS I   5      52.983  33.353   4.833  0.30 30.24 LIG-0.29  OA
ENDBRANCH 43 44
BRANCH 43 46
ATOM     46  CB  LYS I   5      52.284  35.070   7.425  0.30 30.11 LIG 0.03  C 
BRANCH 46 47
ATOM     47  CG  LYS I   5      52.864  36.463   7.276  0.30 29.43 LIG 0.00  C 
BRANCH 47 48
ATOM     48  CD  LYS I   5      53.594  36.883   8.528  0.30 28.58 LIG 0.03  C 
BRANCH 48 49
ATOM     49  CE  LYS I   5      55.090  36.672   8.362  0.30 28.11 LIG 0.23  C 
BRANCH 49 50
ATOM     50  NZ  LYS I   5      55.406  35.492   7.520  0.30 27.97 LIG-0.08  N 
ATOM     51 HZ1  LYS I   5      55.378  34.755   8.019  0.30 27.97 LIG 0.27  HD
ATOM     52 HZ2  LYS I   5      54.808  35.428   6.864  0.30 27.97 LIG 0.27  HD
ATOM     53 HZ3  LYS I   5      56.220  35.584   7.173  0.30 27.97 LIG 0.27  HD
ENDBRANCH 49 50
ENDBRANCH 48 49
ENDBRANCH 47 48
ENDBRANCH 46 47
ENDBRANCH 43 46
ENDBRANCH 40 43
ENDBRANCH 34 39
ENDBRANCH 31 34
ENDBRANCH 1 30
TORSDOF 23
ENDMDL
MODEL 5
USER: ADFR SOLUTION from run 11
USER: SCORE 11.327285 LL:  -3.783 LR:  -9.115 RR:   0.000 FEB:  -2.254
USER: RMSD 4.234638
USER: SEED 630933
USER: STATUS no improvement in best 4 clusters for 5 generations
USER: GENES 25
USER: genes 0 Translation |==|  0.53125 0.43863 0.44768
USER: genes 1 Rotation |==|  0.48677 0.60573 0.41879 0.98172
USER: genes 2 Torsion [C]-CA--N-[C] |==|  0.66667
USER: genes 3 Torsion [N]-C--CA-[N] |==|  0.38490
USER: genes 4 Torsion [C]-CA--CB-[CG] |==|  0.23834
USER: genes 5 Torsion [CA]-CB--CG-[CD1] |==|  0.75847
USER: genes 6 Torsion [C]-CA--N-[C] |==|  0.79213
USER: genes 7 Torsion [N]-C--CA-[N] |==|  0.98681
USER: genes 8 Torsion [C]-CA--CB-[CG] |==|  0.34048
USER: genes 9 Torsion [CA]-CB--CG-[CD2] |==|  0.62701
USER: genes 10 Torsion [C]-CA--N-[H2] |==|  0.67998
USER: genes 11 Torsion [N]-CA--CB-[OG] |==|  0.32519
USER: genes 12 Torsion [CA]-CB--OG-[HG] |==|  0.70392
USER: genes 13 Torsion [N]-CA--C-[N] |==|  0.85843
USER: genes 14 Torsion [C]-N--CA-[CB] |==|  0.24363
USER: genes 15 Torsion [N]-CA--CB-[CG2] |==|  0.48944
USER: genes 16 Torsion [CA]-CB--OG1-[HG1] |==|  0.19564
USER: genes 17 Torsion [N]-CA--C-[N] |==|  0.30137
USER: genes 18 Torsion [C]-N--CA-[C] |==|  0.66910
USER: genes 19 Torsion [N]-CA--C-[O] |==|  0.95717
USER: genes 20 Torsion [N]-CA--CB-[CG] |==|  0.04812
USER: genes 21 Torsion [CA]-CB--CG-[CD] |==|  0.25295
USER: genes 22 Torsion [CB]-CG--CD-[CE] |==|  0.25884
USER: genes 23 Torsion [CG]-CD--CE-[NZ] |==|  0.59747
USER: genes 24 Torsion [CD]-CE--NZ-[HZ2] |==|  0.44510
ROOT
ATOM      1  CA  SER I   3      46.968  29.979   8.200  0.30 32.02 LIG 0.20  C 
ENDROOT
BRANCH 1 2
ATOM      2  N   SER I   3      46.804  31.052   9.176  0.30 32.24 LIG-0.34  N 
ATOM      3 H    SER I   3      46.534  31.815   8.884  0.30 32.24 LIG 0.16  HD
ATOM      4  C   LEU I   2      47.092  30.732  10.419  0.30 32.50 LIG 0.24  C 
ATOM      5 O    LEU I   2      47.487  29.608  10.720  0.30 32.61 LIG-0.27  OA
BRANCH 4 6
ATOM      6  CA  LEU I   2      46.924  31.761  11.494  0.30 32.74 LIG 0.18  C 
BRANCH 6 7
ATOM      7  CB  LEU I   2      48.253  32.434  11.855  0.30 32.79 LIG 0.04  C 
BRANCH 7 8
ATOM      8  CG  LEU I   2      48.636  33.641  10.966  0.30 32.97 LIG-0.02  C 
ATOM      9  CD1 LEU I   2      49.387  33.169   9.733  0.30 33.23 LIG 0.01  C 
ATOM     10  CD2 LEU I   2      47.408  34.444  10.565  0.30 33.13 LIG 0.01  C 
ENDBRANCH 7 8
ENDBRANCH 6 7
BRANCH 6 11
ATOM     11  N   LEU I   2      46.353  30.862  12.454  0.30 32.86 LIG-0.35  N 
ATOM     12  C   PHE I   1      45.119  30.431  12.362  0.30 33.00 LIG 0.25  C 
ATOM     13 O    PHE I   1      44.297  30.927  11.594  0.30 33.06 LIG-0.27  OA
ATOM     14 H    LEU I   2      46.890  30.635  13.086  0.30 32.86 LIG 0.16  HD
BRANCH 12 15
ATOM     15  CA  PHE I   1      44.733  29.275  13.276  0.30 33.09 LIG 0.28  C 
BRANCH 15 16
ATOM     16  CB  PHE I   1      43.627  29.657  14.232  0.30 33.12 LIG 0.08  C 
BRANCH 16 17
ATOM     17  CG  PHE I   1      42.363  28.830  14.201  0.30 33.22 LIG-0.06  A 
ATOM     18  CD1 PHE I   1      42.339  27.426  14.166  0.30 33.33 LIG 0.01  A 
ATOM     19  CE1 PHE I   1      41.115  26.755  14.179  0.30 33.39 LIG 0.00  A 
ATOM     20  CZ  PHE I   1      39.935  27.468  14.217  0.30 33.40 LIG 0.00  A 
ATOM     21  CE2 PHE I   1      39.949  28.843  14.218  0.30 33.33 LIG 0.00  A 
ATOM     22  CD2 PHE I   1      41.148  29.503  14.201  0.30 33.29 LIG 0.01  A 
ENDBRANCH 16 17
ENDBRANCH 15 16
BRANCH 15 23
ATOM     23  N   PHE I   1      45.889  28.788  14.022  0.30 33.12 LIG-0.07  N 
ATOM     24 H2   PHE I   1      46.072  27.953  13.776  0.30 33.12 LIG 0.28  HD
ATOM     25 H1   PHE I   1      45.710  28.808  14.894  0.30 33.12 LIG 0.28  HD
ATOM     26 H3   PHE I   1      46.592  29.307  13.853  0.30 33.12 LIG 0.28  HD
ENDBRANCH 15 23
ENDBRANCH 12 15
ENDBRANCH 6 11
ENDBRANCH 4 6
ENDBRANCH 1 2
BRANCH 1 27
ATOM     27  CB  SER I   3      45.613  29.650   7.566  0.30 32.04 LIG 0.20  C 
BRANCH 27 28
ATOM     28 OG   SER I   3      45.626  29.914   6.176  0.30 32.08 LIG-0.40  OA
ATOM     29 HG   SER I   3      45.179  30.607   6.019  0.30 32.08 LIG 0.21  HD
ENDBRANCH 27 28
ENDBRANCH 1 27
BRANCH 1 30
ATOM     30  C   SER I   3      47.961  30.266   7.102  0.30 31.77 LIG 0.24  C 
ATOM     31  N   THR I   4      47.879  31.389   6.415  0.30 31.46 LIG-0.34  N 
ATOM     32 H    THR I   4      47.343  32.047   6.553  0.30 31.46 LIG 0.16  HD
ATOM     33 O    SER I   3      48.836  29.438   6.874  0.30 31.84 LIG-0.27  OA
BRANCH 31 34
ATOM     34  CA  THR I   4      48.801  31.499   5.316  0.30 31.16 LIG 0.20  C 
BRANCH 34 35
ATOM     35  CB  THR I   4      48.181  30.882   4.070  0.30 31.16 LIG 0.15  C 
ATOM     36  CG2 THR I   4      49.088  31.063   2.866  0.30 31.01 LIG 0.04  C 
BRANCH 35 37
ATOM     37 OG1  THR I   4      47.946  29.487   4.296  0.30 31.22 LIG-0.39  OA
ATOM     38 HG1  THR I   4      47.318  29.394   4.846  0.30 31.22 LIG 0.21  HD
ENDBRANCH 35 37
ENDBRANCH 34 35
BRANCH 34 39
ATOM     39  C   THR I   4      49.262  32.914   5.014  0.30 30.90 LIG 0.24  C 
ATOM     40  N   LYS I   5      50.508  33.178   5.331  0.30 30.59 LIG-0.35  N 
ATOM     41 H    LYS I   5      51.035  32.675   5.788  0.30 30.59 LIG 0.16  HD
ATOM     42 O    THR I   4      48.507  33.736   4.501  0.30 30.97 LIG-0.27  OA
BRANCH 40 43
ATOM     43  CA  LYS I   5      51.043  34.418   4.876  0.30 30.26 LIG 0.16  C 
BRANCH 43 44
ATOM     44  C   LYS I   5      52.210  34.042   3.981  0.30 30.28 LIG 0.22  C 
ATOM     45 O    LYS I   5      52.687  32.912   3.998  0.30 30.24 LIG-0.29  OA
ENDBRANCH 43 44
BRANCH 43 46
ATOM     46  CB  LYS I   5      51.564  35.295   5.993  0.30 30.11 LIG 0.03  C 
BRANCH 46 47
ATOM     47  CG  LYS I   5      51.801  34.548   7.291  0.30 29.43 LIG 0.00  C 
BRANCH 47 48
ATOM     48  CD  LYS I   5      53.216  34.028   7.366  0.30 28.58 LIG 0.03  C 
BRANCH 48 49
ATOM     49  CE  LYS I   5      54.108  35.028   8.086  0.30 28.11 LIG 0.23  C 
BRANCH 49 50
ATOM     50  NZ  LYS I   5      55.482  35.062   7.528  0.30 27.97 LIG-0.08  N 
ATOM     51 HZ1  LYS I   5      55.445  35.006   6.641  0.30 27.97 LIG 0.27  HD
ATOM     52 HZ2  LYS I   5      55.878  35.825   7.761  0.30 27.97 LIG 0.27  HD
ATOM     53 HZ3  LYS I   5      55.950  34.376   7.849  0.30 27.97 LIG 0.27  HD
ENDBRANCH 49 50
ENDBRANCH 48 49
ENDBRANCH 47 48
ENDBRANCH 46 47
ENDBRANCH 43 46
ENDBRANCH 40 43
ENDBRANCH 34 39
ENDBRANCH 31 34
ENDBRANCH 1 30
TORSDOF 23
ENDMDL
MODEL 6
USER: ADFR SOLUTION from run 6
USER: SCORE 9.940309 LL:  -3.446 LR:  -8.904 RR:   0.000 FEB:  -2.043
USER: RMSD 3.648848
USER: SEED 595312
USER: STATUS no improvement in best 4 clusters for 5 generations
USER: GENES 25
USER: genes 0 Translation |==|  0.52605 0.43712 0.44244
USER: genes 1 Rotation |==|  0.53045 0.55082 0.41587 0.98930
USER: genes 2 Torsion [C]-CA--N-[C] |==|  0.54072
USER: genes 3 Torsion [N]-C--CA-[N] |==|  0.44018
USER: genes 4 Torsion [C]-CA--CB-[CG] |==|  0.29415
USER: genes 5 Torsion [CA]-CB--CG-[CD1] |==|  0.07452
USER: genes 6 Torsion [C]-CA--N-[C] |==|  0.74183
USER: genes 7 Torsion [N]-C--CA-[N] |==|  0.89155
USER: genes 8 Torsion [C]-CA--CB-[CG] |==|  0.92309
USER: genes 9 Torsion [CA]-CB--CG-[CD2] |==|  0.70725
USER: genes 10 Torsion [C]-CA--N-[H2] |==|  0.85464
USER: genes 11 Torsion [N]-CA--CB-[OG] |==|  0.42736
USER: genes 12 Torsion [CA]-CB--OG-[HG] |==|  0.03342
USER: genes 13 Torsion [N]-CA--C-[N] |==|  0.80188
USER: genes 14 Torsion [C]-N--CA-[CB] |==|  0.28780
USER: genes 15 Torsion [N]-CA--CB-[CG2] |==|  0.48690
USER: genes 16 Torsion [CA]-CB--OG1-[HG1] |==|  0.71758
USER: genes 17 Torsion [N]-CA--C-[N] |==|  0.32401
USER: genes 18 Torsion [C]-N--CA-[C] |==|  0.75230
USER: genes 19 Torsion [N]-CA--C-[O] |==|  0.94538
USER: genes 20 Torsion [N]-CA--CB-[CG] |==|  0.56507
USER: genes 21 Torsion [CA]-CB--CG-[CD] |==|  0.45629
USER: genes 22 Torsion [CB]-CG--CD-[CE] |==|  0.30747
USER: genes 23 Torsion [CG]-CD--CE-[NZ] |==|  0.79856
USER: genes 24 Torsion [CD]-CE--NZ-[HZ2] |==|  0.83411
ROOT
ATOM      1  CA  SER I   3      46.812  29.934   8.043  0.30 32.02 LIG 0.20  C 
ENDROOT
BRANCH 1 2
ATOM      2  N   SER I   3      46.435  30.884   9.085  0.30 32.24 LIG-0.34  N 
ATOM      3 H    SER I   3      46.805  31.660   9.066  0.30 32.24 LIG 0.16  HD
ATOM      4  C   LEU I   2      45.555  30.443   9.958  0.30 32.50 LIG 0.24  C 
ATOM      5 O    LEU I   2      45.102  29.302   9.897  0.30 32.61 LIG-0.27  OA
BRANCH 4 6
ATOM      6  CA  LEU I   2      45.085  31.360  11.045  0.30 32.74 LIG 0.18  C 
BRANCH 6 7
ATOM      7  CB  LEU I   2      46.104  31.464  12.185  0.30 32.79 LIG 0.04  C 
BRANCH 7 8
ATOM      8  CG  LEU I   2      46.896  32.792  12.233  0.30 32.97 LIG-0.02  C 
ATOM      9  CD1 LEU I   2      46.084  33.912  11.605  0.30 33.23 LIG 0.01  C 
ATOM     10  CD2 LEU I   2      47.283  33.154  13.660  0.30 33.13 LIG 0.01  C 
ENDBRANCH 7 8
ENDBRANCH 6 7
BRANCH 6 11
ATOM     11  N   LEU I   2      43.868  30.648  11.306  0.30 32.86 LIG-0.35  N 
ATOM     12  C   PHE I   1      42.737  30.959  10.723  0.30 33.00 LIG 0.25  C 
ATOM     13 O    PHE I   1      42.578  32.003  10.094  0.30 33.06 LIG-0.27  OA
ATOM     14 H    LEU I   2      43.951  30.007  11.873  0.30 32.86 LIG 0.16  HD
BRANCH 12 15
ATOM     15  CA  PHE I   1      41.598  29.958  10.872  0.30 33.09 LIG 0.28  C 
BRANCH 15 16
ATOM     16  CB  PHE I   1      40.842  30.152  12.166  0.30 33.12 LIG 0.08  C 
BRANCH 16 17
ATOM     17  CG  PHE I   1      41.599  30.748  13.331  0.30 33.22 LIG-0.06  A 
ATOM     18  CD1 PHE I   1      41.953  32.102  13.433  0.30 33.33 LIG 0.01  A 
ATOM     19  CE1 PHE I   1      42.619  32.560  14.572  0.30 33.39 LIG 0.00  A 
ATOM     20  CZ  PHE I   1      42.935  31.683  15.587  0.30 33.40 LIG 0.00  A 
ATOM     21  CE2 PHE I   1      42.622  30.347  15.481  0.30 33.33 LIG 0.00  A 
ATOM     22  CD2 PHE I   1      41.972  29.896  14.363  0.30 33.29 LIG 0.01  A 
ENDBRANCH 16 17
ENDBRANCH 15 16
BRANCH 15 23
ATOM     23  N   PHE I   1      42.091  28.587  10.786  0.30 33.12 LIG-0.07  N 
ATOM     24 H2   PHE I   1      42.576  28.491  10.046  0.30 33.12 LIG 0.28  HD
ATOM     25 H1   PHE I   1      41.402  28.024  10.763  0.30 33.12 LIG 0.28  HD
ATOM     26 H3   PHE I   1      42.597  28.407  11.496  0.30 33.12 LIG 0.28  HD
ENDBRANCH 15 23
ENDBRANCH 12 15
ENDBRANCH 6 11
ENDBRANCH 4 6
ENDBRANCH 1 2
BRANCH 1 27
ATOM     27  CB  SER I   3      45.649  29.759   7.062  0.30 32.04 LIG 0.20  C 
BRANCH 27 28
ATOM     28 OG   SER I   3      46.117  29.367   5.785  0.30 32.08 LIG-0.40  OA
ATOM     29 HG   SER I   3      46.924  29.143   5.840  0.30 32.08 LIG 0.21  HD
ENDBRANCH 27 28
ENDBRANCH 1 27
BRANCH 1 30
ATOM     30  C   SER I   3      48.051  30.303   7.267  0.30 31.77 LIG 0.24  C 
ATOM     31  N   THR I   4      48.021  31.309   6.415  0.30 31.46 LIG-0.34  N 
ATOM     32 H    THR I   4      47.372  31.856   6.276  0.30 31.46 LIG 0.16  HD
ATOM     33 O    SER I   3      49.072  29.651   7.452  0.30 31.84 LIG-0.27  OA
BRANCH 31 34
ATOM     34  CA  THR I   4      49.223  31.491   5.644  0.30 31.16 LIG 0.20  C 
BRANCH 34 35
ATOM     35  CB  THR I   4      49.003  30.971   4.231  0.30 31.16 LIG 0.15  C 
ATOM     36  CG2 THR I   4      50.211  31.251   3.355  0.30 31.01 LIG 0.04  C 
BRANCH 35 37
ATOM     37 OG1  THR I   4      48.752  29.561   4.277  0.30 31.22 LIG-0.39  OA
ATOM     38 HG1  THR I   4      49.448  29.145   4.058  0.30 31.22 LIG 0.21  HD
ENDBRANCH 35 37
ENDBRANCH 34 35
BRANCH 34 39
ATOM     39  C   THR I   4      49.732  32.921   5.592  0.30 30.90 LIG 0.24  C 
ATOM     40  N   LYS I   5      50.911  33.116   6.136  0.30 30.59 LIG-0.35  N 
ATOM     41 H    LYS I   5      51.354  32.551   6.609  0.30 30.59 LIG 0.16  HD
ATOM     42 O    THR I   4      49.075  33.815   5.066  0.30 30.97 LIG-0.27  OA
BRANCH 40 43
ATOM     43  CA  LYS I   5      51.518  34.388   5.925  0.30 30.26 LIG 0.16  C 
BRANCH 43 44
ATOM     44  C   LYS I   5      52.315  34.239   4.642  0.30 30.28 LIG 0.22  C 
ATOM     45 O    LYS I   5      52.634  33.134   4.215  0.30 30.24 LIG-0.29  OA
ENDBRANCH 43 44
BRANCH 43 46
ATOM     46  CB  LYS I   5      52.469  34.793   7.031  0.30 30.11 LIG 0.03  C 
BRANCH 46 47
ATOM     47  CG  LYS I   5      52.678  36.290   7.134  0.30 29.43 LIG 0.00  C 
BRANCH 47 48
ATOM     48  CD  LYS I   5      53.307  36.660   8.455  0.30 28.58 LIG 0.03  C 
BRANCH 48 49
ATOM     49  CE  LYS I   5      54.733  37.143   8.244  0.30 28.11 LIG 0.23  C 
BRANCH 49 50
ATOM     50  NZ  LYS I   5      55.659  36.038   7.896  0.30 27.97 LIG-0.08  N 
ATOM     51 HZ1  LYS I   5      56.480  36.361   7.785  0.30 27.97 LIG 0.27  HD
ATOM     52 HZ2  LYS I   5      55.663  35.436   8.552  0.30 27.97 LIG 0.27  HD
ATOM     53 HZ3  LYS I   5      55.389  35.651   7.141  0.30 27.97 LIG 0.27  HD
ENDBRANCH 49 50
ENDBRANCH 48 49
ENDBRANCH 47 48
ENDBRANCH 46 47
ENDBRANCH 43 46
ENDBRANCH 40 43
ENDBRANCH 34 39
ENDBRANCH 31 34
ENDBRANCH 1 30
TORSDOF 23
ENDMDL
MODEL 7
USER: ADFR SOLUTION from run 110
USER: SCORE 10.923486 LL:  -3.884 LR:  -8.816 RR:   0.000 FEB:  -1.955
USER: RMSD 3.358166
USER: SEED 109
USER: STATUS searching
USER: GENES 25
USER: genes 0 Translation |==|  0.53334 0.44512 0.45821
USER: genes 1 Rotation |==|  0.51669 0.57147 0.41595 0.98739
USER: genes 2 Torsion [C]-CA--N-[C] |==|  0.62949
USER: genes 3 Torsion [N]-C--CA-[N] |==|  0.36401
USER: genes 4 Torsion [C]-CA--CB-[CG] |==|  0.22919
USER: genes 5 Torsion [CA]-CB--CG-[CD1] |==|  0.76754
USER: genes 6 Torsion [C]-CA--N-[C] |==|  0.63385
USER: genes 7 Torsion [N]-C--CA-[N] |==|  0.25389
USER: genes 8 Torsion [C]-CA--CB-[CG] |==|  0.11795
USER: genes 9 Torsion [CA]-CB--CG-[CD2] |==|  0.66106
USER: genes 10 Torsion [C]-CA--N-[H2] |==|  0.00696
USER: genes 11 Torsion [N]-CA--CB-[OG] |==|  0.45316
USER: genes 12 Torsion [CA]-CB--OG-[HG] |==|  0.84705
USER: genes 13 Torsion [N]-CA--C-[N] |==|  0.89051
USER: genes 14 Torsion [C]-N--CA-[CB] |==|  0.22559
USER: genes 15 Torsion [N]-CA--CB-[CG2] |==|  0.48684
USER: genes 16 Torsion [CA]-CB--OG1-[HG1] |==|  0.92131
USER: genes 17 Torsion [N]-CA--C-[N] |==|  0.30676
USER: genes 18 Torsion [C]-N--CA-[C] |==|  0.73934
USER: genes 19 Torsion [N]-CA--C-[O] |==|  0.93533
USER: genes 20 Torsion [N]-CA--CB-[CG] |==|  0.51038
USER: genes 21 Torsion [CA]-CB--CG-[CD] |==|  0.43641
USER: genes 22 Torsion [CB]-CG--CD-[CE] |==|  0.38701
USER: genes 23 Torsion [CG]-CD--CE-[NZ] |==|  0.85384
USER: genes 24 Torsion [CD]-CE--NZ-[HZ2] |==|  0.83511
ROOT
ATOM      1  CA  SER I   3      47.030  30.173   8.516  0.30 32.02 LIG 0.20  C 
ENDROOT
BRANCH 1 2
ATOM      2  N   SER I   3      46.739  31.161   9.550  0.30 32.24 LIG-0.34  N 
ATOM      3 H    SER I   3      46.709  31.987   9.312  0.30 32.24 LIG 0.16  HD
ATOM      4  C   LEU I   2      46.550  30.674  10.757  0.30 32.50 LIG 0.24  C 
ATOM      5 O    LEU I   2      46.633  29.469  10.987  0.30 32.61 LIG-0.27  OA
BRANCH 4 6
ATOM      6  CA  LEU I   2      46.214  31.610  11.877  0.30 32.74 LIG 0.18  C 
BRANCH 6 7
ATOM      7  CB  LEU I   2      47.398  31.813  12.828  0.30 32.79 LIG 0.04  C 
BRANCH 7 8
ATOM      8  CG  LEU I   2      48.438  32.860  12.363  0.30 32.97 LIG-0.02  C 
ATOM      9  CD1 LEU I   2      49.425  32.228  11.397  0.30 33.23 LIG 0.01  C 
ATOM     10  CD2 LEU I   2      47.762  34.062  11.720  0.30 33.13 LIG 0.01  C 
ENDBRANCH 7 8
ENDBRANCH 6 7
BRANCH 6 11
ATOM     11  N   LEU I   2      45.098  30.850  12.359  0.30 32.86 LIG-0.35  N 
ATOM     12  C   PHE I   1      43.938  31.400  12.623  0.30 33.00 LIG 0.25  C 
ATOM     13 O    PHE I   1      43.780  32.617  12.695  0.30 33.06 LIG-0.27  OA
ATOM     14 H    LEU I   2      45.260  30.012  12.457  0.30 32.86 LIG 0.16  HD
BRANCH 12 15
ATOM     15  CA  PHE I   1      42.772  30.447  12.855  0.30 33.09 LIG 0.28  C 
BRANCH 15 16
ATOM     16  CB  PHE I   1      41.471  31.014  12.335  0.30 33.12 LIG 0.08  C 
BRANCH 16 17
ATOM     17  CG  PHE I   1      41.500  31.706  10.991  0.30 33.22 LIG-0.06  A 
ATOM     18  CD1 PHE I   1      41.930  31.099   9.800  0.30 33.33 LIG 0.01  A 
ATOM     19  CE1 PHE I   1      41.881  31.814   8.602  0.30 33.39 LIG 0.00  A 
ATOM     20  CZ  PHE I   1      41.421  33.114   8.591  0.30 33.40 LIG 0.00  A 
ATOM     21  CE2 PHE I   1      41.029  33.727   9.759  0.30 33.33 LIG 0.00  A 
ATOM     22  CD2 PHE I   1      41.080  33.028  10.935  0.30 33.29 LIG 0.01  A 
ENDBRANCH 16 17
ENDBRANCH 15 16
BRANCH 15 23
ATOM     23  N   PHE I   1      42.639  30.116  14.270  0.30 33.12 LIG-0.07  N 
ATOM     24 H2   PHE I   1      43.247  30.565  14.739  0.30 33.12 LIG 0.28  HD
ATOM     25 H1   PHE I   1      42.763  29.241  14.383  0.30 33.12 LIG 0.28  HD
ATOM     26 H3   PHE I   1      41.824  30.338  14.552  0.30 33.12 LIG 0.28  HD
ENDBRANCH 15 23
ENDBRANCH 12 15
ENDBRANCH 6 11
ENDBRANCH 4 6
ENDBRANCH 1 2
BRANCH 1 27
ATOM     27  CB  SER I   3      45.786  29.951   7.653  0.30 32.04 LIG 0.20  C 
BRANCH 27 28
ATOM     28 OG   SER I   3      46.121  29.314   6.434  0.30 32.08 LIG-0.40  OA
ATOM     29 HG   SER I   3      46.713  29.760   6.039  0.30 32.08 LIG 0.21  HD
ENDBRANCH 27 28
ENDBRANCH 1 27
BRANCH 1 30
ATOM     30  C   SER I   3      48.190  30.521   7.617  0.30 31.77 LIG 0.24  C 
ATOM     31  N   THR I   4      48.364  31.766   7.216  0.30 31.46 LIG-0.34  N 
ATOM     32 H    THR I   4      47.918  32.459   7.458  0.30 31.46 LIG 0.16  HD
ATOM     33 O    SER I   3      48.955  29.626   7.278  0.30 31.84 LIG-0.27  OA
BRANCH 31 34
ATOM     34  CA  THR I   4      49.428  31.956   6.266  0.30 31.16 LIG 0.20  C 
BRANCH 34 35
ATOM     35  CB  THR I   4      48.935  31.593   4.872  0.30 31.16 LIG 0.15  C 
ATOM     36  CG2 THR I   4      49.994  31.892   3.826  0.30 31.01 LIG 0.04  C 
BRANCH 35 37
ATOM     37 OG1  THR I   4      48.593  30.202   4.835  0.30 31.22 LIG-0.39  OA
ATOM     38 HG1  THR I   4      49.059  29.784   5.395  0.30 31.22 LIG 0.21  HD
ENDBRANCH 35 37
ENDBRANCH 34 35
BRANCH 34 39
ATOM     39  C   THR I   4      50.025  33.352   6.253  0.30 30.90 LIG 0.24  C 
ATOM     40  N   LYS I   5      51.249  33.443   6.717  0.30 30.59 LIG-0.35  N 
ATOM     41 H    LYS I   5      51.687  32.826   7.124  0.30 30.59 LIG 0.16  HD
ATOM     42 O    THR I   4      49.391  34.314   5.825  0.30 30.97 LIG-0.27  OA
BRANCH 40 43
ATOM     43  CA  LYS I   5      51.921  34.686   6.530  0.30 30.26 LIG 0.16  C 
BRANCH 43 44
ATOM     44  C   LYS I   5      52.708  34.522   5.242  0.30 30.28 LIG 0.22  C 
ATOM     45 O    LYS I   5      53.027  33.411   4.828  0.30 30.24 LIG-0.29  OA
ENDBRANCH 43 44
BRANCH 43 46
ATOM     46  CB  LYS I   5      52.892  35.019   7.642  0.30 30.11 LIG 0.03  C 
BRANCH 46 47
ATOM     47  CG  LYS I   5      53.542  36.381   7.493  0.30 29.43 LIG 0.00  C 
BRANCH 47 48
ATOM     48  CD  LYS I   5      54.032  36.896   8.823  0.30 28.58 LIG 0.03  C 
BRANCH 48 49
ATOM     49  CE  LYS I   5      55.387  37.566   8.664  0.30 28.11 LIG 0.23  C 
BRANCH 49 50
ATOM     50  NZ  LYS I   5      56.371  36.695   7.976  0.30 27.97 LIG-0.08  N 
ATOM     51 HZ1  LYS I   5      57.150  37.120   7.911  0.30 27.97 LIG 0.27  HD
ATOM     52 HZ2  LYS I   5      56.481  35.945   8.443  0.30 27.97 LIG 0.27  HD
ATOM     53 HZ3  LYS I   5      56.074  36.497   7.161  0.30 27.97 LIG 0.27  HD
ENDBRANCH 49 50
ENDBRANCH 48 49
ENDBRANCH 47 48
ENDBRANCH 46 47
ENDBRANCH 43 46
ENDBRANCH 40 43
ENDBRANCH 34 39
ENDBRANCH 31 34
ENDBRANCH 1 30
TORSDOF 23
ENDMDL
MODEL 8
USER: ADFR SOLUTION from run 122
USER: SCORE 9.974823 LL:  -3.660 LR:  -8.742 RR:   0.000 FEB:  -1.881
USER: RMSD 2.125633
USER: SEED 121
USER: STATUS searching
USER: GENES 25
USER: genes 0 Translation |==|  0.52561 0.42714 0.48432
USER: genes 1 Rotation |==|  0.30350 0.42269 0.58244 0.94566
USER: genes 2 Torsion [C]-CA--N-[C] |==|  0.55056
USER: genes 3 Torsion [N]-C--CA-[N] |==|  0.39918
USER: genes 4 Torsion [C]-CA--CB-[CG] |==|  0.44611
USER: genes 5 Torsion [CA]-CB--CG-[CD1] |==|  0.95270
USER: genes 6 Torsion [C]-CA--N-[C] |==|  0.66535
USER: genes 7 Torsion [N]-C--CA-[N] |==|  0.88274
USER: genes 8 Torsion [C]-CA--CB-[CG] |==|  0.08238
USER: genes 9 Torsion [CA]-CB--CG-[CD2] |==|  0.66942
USER: genes 10 Torsion [C]-CA--N-[H2] |==|  0.85516
USER: genes 11 Torsion [N]-CA--CB-[OG] |==|  0.72923
USER: genes 12 Torsion [CA]-CB--OG-[HG] |==|  0.66548
USER: genes 13 Torsion [N]-CA--C-[N] |==|  0.99770
USER: genes 14 Torsion [C]-N--CA-[CB] |==|  0.30349
USER: genes 15 Torsion [N]-CA--CB-[CG2] |==|  0.42977
USER: genes 16 Torsion [CA]-CB--OG1-[HG1] |==|  0.68764
USER: genes 17 Torsion [N]-CA--C-[N] |==|  0.31619
USER: genes 18 Torsion [C]-N--CA-[C] |==|  0.79365
USER: genes 19 Torsion [N]-CA--C-[O] |==|  0.84461
USER: genes 20 Torsion [N]-CA--CB-[CG] |==|  0.50304
USER: genes 21 Torsion [CA]-CB--CG-[CD] |==|  0.49697
USER: genes 22 Torsion [CB]-CG--CD-[CE] |==|  0.31650
USER: genes 23 Torsion [CG]-CD--CE-[NZ] |==|  0.86891
USER: genes 24 Torsion [CD]-CE--NZ-[HZ2] |==|  0.83588
ROOT
ATOM      1  CA  SER I   3      46.798  29.634   9.299  0.30 32.02 LIG 0.20  C 
ENDROOT
BRANCH 1 2
ATOM      2  N   SER I   3      45.540  30.330   9.048  0.30 32.24 LIG-0.34  N 
ATOM      3 H    SER I   3      45.497  30.830   8.350  0.30 32.24 LIG 0.16  HD
ATOM      4  C   LEU I   2      44.590  30.113   9.931  0.30 32.50 LIG 0.24  C 
ATOM      5 O    LEU I   2      44.769  29.386  10.906  0.30 32.61 LIG-0.27  OA
BRANCH 4 6
ATOM      6  CA  LEU I   2      43.254  30.760   9.737  0.30 32.74 LIG 0.18  C 
BRANCH 6 7
ATOM      7  CB  LEU I   2      43.150  32.093  10.486  0.30 32.79 LIG 0.04  C 
BRANCH 7 8
ATOM      8  CG  LEU I   2      42.032  33.038   9.985  0.30 32.97 LIG-0.02  C 
ATOM      9  CD1 LEU I   2      41.562  32.612   8.605  0.30 33.23 LIG 0.01  C 
ATOM     10  CD2 LEU I   2      40.862  33.074  10.957  0.30 33.13 LIG 0.01  C 
ENDBRANCH 7 8
ENDBRANCH 6 7
BRANCH 6 11
ATOM     11  N   LEU I   2      42.493  29.655  10.243  0.30 32.86 LIG-0.35  N 
ATOM     12  C   PHE I   1      41.597  29.033   9.517  0.30 33.00 LIG 0.25  C 
ATOM     13 O    PHE I   1      41.180  29.477   8.449  0.30 33.06 LIG-0.27  OA
ATOM     14 H    LEU I   2      42.679  29.442  11.055  0.30 32.86 LIG 0.16  HD
BRANCH 12 15
ATOM     15  CA  PHE I   1      41.070  27.715  10.072  0.30 33.09 LIG 0.28  C 
BRANCH 15 16
ATOM     16  CB  PHE I   1      39.998  27.930  11.115  0.30 33.12 LIG 0.08  C 
BRANCH 16 17
ATOM     17  CG  PHE I   1      39.142  29.169  10.987  0.30 33.22 LIG-0.06  A 
ATOM     18  CD1 PHE I   1      38.323  29.452   9.882  0.30 33.33 LIG 0.01  A 
ATOM     19  CE1 PHE I   1      37.539  30.608   9.880  0.30 33.39 LIG 0.00  A 
ATOM     20  CZ  PHE I   1      37.577  31.471  10.954  0.30 33.40 LIG 0.00  A 
ATOM     21  CE2 PHE I   1      38.402  31.219  12.026  0.30 33.33 LIG 0.00  A 
ATOM     22  CD2 PHE I   1      39.174  30.088  12.028  0.30 33.29 LIG 0.01  A 
ENDBRANCH 16 17
ENDBRANCH 15 16
BRANCH 15 23
ATOM     23  N   PHE I   1      42.153  26.912  10.631  0.30 33.12 LIG-0.07  N 
ATOM     24 H2   PHE I   1      42.805  26.831  10.030  0.30 33.12 LIG 0.28  HD
ATOM     25 H1   PHE I   1      41.845  26.104  10.844  0.30 33.12 LIG 0.28  HD
ATOM     26 H3   PHE I   1      42.472  27.309  11.361  0.30 33.12 LIG 0.28  HD
ENDBRANCH 15 23
ENDBRANCH 12 15
ENDBRANCH 6 11
ENDBRANCH 4 6
ENDBRANCH 1 2
BRANCH 1 27
ATOM     27  CB  SER I   3      46.649  28.154   8.937  0.30 32.04 LIG 0.20  C 
BRANCH 27 28
ATOM     28 OG   SER I   3      46.374  27.375  10.086  0.30 32.08 LIG-0.40  OA
ATOM     29 HG   SER I   3      46.977  26.799  10.184  0.30 32.08 LIG 0.21  HD
ENDBRANCH 27 28
ENDBRANCH 1 27
BRANCH 1 30
ATOM     30  C   SER I   3      47.991  30.196   8.566  0.30 31.77 LIG 0.24  C 
ATOM     31  N   THR I   4      47.843  31.228   7.759  0.30 31.46 LIG-0.34  N 
ATOM     32 H    THR I   4      47.131  31.692   7.630  0.30 31.46 LIG 0.16  HD
ATOM     33 O    SER I   3      49.085  29.673   8.744  0.30 31.84 LIG-0.27  OA
BRANCH 31 34
ATOM     34  CA  THR I   4      49.023  31.599   7.023  0.30 31.16 LIG 0.20  C 
BRANCH 34 35
ATOM     35  CB  THR I   4      48.836  31.246   5.554  0.30 31.16 LIG 0.15  C 
ATOM     36  CG2 THR I   4      49.703  32.124   4.670  0.30 31.01 LIG 0.04  C 
BRANCH 35 37
ATOM     37 OG1  THR I   4      49.171  29.868   5.349  0.30 31.22 LIG-0.39  OA
ATOM     38 HG1  THR I   4      49.866  29.816   4.881  0.30 31.22 LIG 0.21  HD
ENDBRANCH 35 37
ENDBRANCH 34 35
BRANCH 34 39
ATOM     39  C   THR I   4      49.419  33.059   7.154  0.30 30.90 LIG 0.24  C 
ATOM     40  N   LYS I   5      50.555  33.278   7.775  0.30 30.59 LIG-0.35  N 
ATOM     41 H    LYS I   5      51.021  32.698   8.204  0.30 30.59 LIG 0.16  HD
ATOM     42 O    THR I   4      48.715  33.956   6.697  0.30 30.97 LIG-0.27  OA
BRANCH 40 43
ATOM     43  CA  LYS I   5      51.068  34.608   7.736  0.30 30.26 LIG 0.16  C 
BRANCH 43 44
ATOM     44  C   LYS I   5      51.603  34.785   6.327  0.30 30.28 LIG 0.22  C 
ATOM     45 O    LYS I   5      52.441  34.019   5.863  0.30 30.24 LIG-0.29  OA
ENDBRANCH 43 44
BRANCH 43 46
ATOM     46  CB  LYS I   5      52.202  34.844   8.709  0.30 30.11 LIG 0.03  C 
BRANCH 46 47
ATOM     47  CG  LYS I   5      52.732  36.264   8.690  0.30 29.43 LIG 0.00  C 
BRANCH 47 48
ATOM     48  CD  LYS I   5      53.841  36.442   9.698  0.30 28.58 LIG 0.03  C 
BRANCH 48 49
ATOM     49  CE  LYS I   5      55.158  36.719   8.991  0.30 28.11 LIG 0.23  C 
BRANCH 49 50
ATOM     50  NZ  LYS I   5      55.407  35.780   7.870  0.30 27.97 LIG-0.08  N 
ATOM     51 HZ1  LYS I   5      56.191  35.967   7.493  0.30 27.97 LIG 0.27  HD
ATOM     52 HZ2  LYS I   5      55.419  34.945   8.179  0.30 27.97 LIG 0.27  HD
ATOM     53 HZ3  LYS I   5      54.760  35.863   7.264  0.30 27.97 LIG 0.27  HD
ENDBRANCH 49 50
ENDBRANCH 48 49
ENDBRANCH 47 48
ENDBRANCH 46 47
ENDBRANCH 43 46
ENDBRANCH 40 43
ENDBRANCH 34 39
ENDBRANCH 31 34
ENDBRANCH 1 30
TORSDOF 23
ENDMDL
MODEL 9
USER: ADFR SOLUTION from run 126
USER: SCORE 9.951337 LL:  -3.214 LR:  -8.585 RR:   0.000 FEB:  -1.724
USER: RMSD 2.462097
USER: SEED 125
USER: STATUS 1 or 2 clusters left
USER: GENES 25
USER: genes 0 Translation |==|  0.53249 0.43271 0.46534
USER: genes 1 Rotation |==|  0.49049 0.51397 0.47894 0.99927
USER: genes 2 Torsion [C]-CA--N-[C] |==|  0.62463
USER: genes 3 Torsion [N]-C--CA-[N] |==|  0.36548
USER: genes 4 Torsion [C]-CA--CB-[CG] |==|  0.28319
USER: genes 5 Torsion [CA]-CB--CG-[CD1] |==|  0.07292
USER: genes 6 Torsion [C]-CA--N-[C] |==|  0.79372
USER: genes 7 Torsion [N]-C--CA-[N] |==|  0.02596
USER: genes 8 Torsion [C]-CA--CB-[CG] |==|  0.28884
USER: genes 9 Torsion [CA]-CB--CG-[CD2] |==|  0.73892
USER: genes 10 Torsion [C]-CA--N-[H2] |==|  0.51025
USER: genes 11 Torsion [N]-CA--CB-[OG] |==|  0.04719
USER: genes 12 Torsion [CA]-CB--OG-[HG] |==|  0.66031
USER: genes 13 Torsion [N]-CA--C-[N] |==|  0.86945
USER: genes 14 Torsion [C]-N--CA-[CB] |==|  0.27749
USER: genes 15 Torsion [N]-CA--CB-[CG2] |==|  0.45270
USER: genes 16 Torsion [CA]-CB--OG1-[HG1] |==|  0.69086
USER: genes 17 Torsion [N]-CA--C-[N] |==|  0.28016
USER: genes 18 Torsion [C]-N--CA-[C] |==|  0.73895
USER: genes 19 Torsion [N]-CA--C-[O] |==|  0.93506
USER: genes 20 Torsion [N]-CA--CB-[CG] |==|  0.45012
USER: genes 21 Torsion [CA]-CB--CG-[CD] |==|  0.69673
USER: genes 22 Torsion [CB]-CG--CD-[CE] |==|  0.33972
USER: genes 23 Torsion [CG]-CD--CE-[NZ] |==|  0.70489
USER: genes 24 Torsion [CD]-CE--NZ-[HZ2] |==|  0.91869
ROOT
ATOM      1  CA  SER I   3      47.005  29.801   8.730  0.30 32.02 LIG 0.20  C 
ENDROOT
BRANCH 1 2
ATOM      2  N   SER I   3      46.248  30.750   9.542  0.30 32.24 LIG-0.34  N 
ATOM      3 H    SER I   3      46.093  31.525   9.203  0.30 32.24 LIG 0.16  HD
ATOM      4  C   LEU I   2      45.879  30.310  10.725  0.30 32.50 LIG 0.24  C 
ATOM      5 O    LEU I   2      46.172  29.181  11.114  0.30 32.61 LIG-0.27  OA
BRANCH 4 6
ATOM      6  CA  LEU I   2      45.071  31.203  11.614  0.30 32.74 LIG 0.18  C 
BRANCH 6 7
ATOM      7  CB  LEU I   2      45.906  31.765  12.770  0.30 32.79 LIG 0.04  C 
BRANCH 7 8
ATOM      8  CG  LEU I   2      46.372  33.229  12.587  0.30 32.97 LIG-0.02  C 
ATOM      9  CD1 LEU I   2      45.416  33.975  11.673  0.30 33.23 LIG 0.01  C 
ATOM     10  CD2 LEU I   2      46.492  33.943  13.925  0.30 33.13 LIG 0.01  C 
ENDBRANCH 7 8
ENDBRANCH 6 7
BRANCH 6 11
ATOM     11  N   LEU I   2      44.079  30.218  11.931  0.30 32.86 LIG-0.35  N 
ATOM     12  C   PHE I   1      43.159  29.850  11.073  0.30 33.00 LIG 0.25  C 
ATOM     13 O    PHE I   1      42.935  30.466  10.033  0.30 33.06 LIG-0.27  OA
ATOM     14 H    LEU I   2      44.144  29.896  12.726  0.30 32.86 LIG 0.16  HD
BRANCH 12 15
ATOM     15  CA  PHE I   1      42.353  28.607  11.432  0.30 33.09 LIG 0.28  C 
BRANCH 15 16
ATOM     16  CB  PHE I   1      40.869  28.826  11.249  0.30 33.12 LIG 0.08  C 
BRANCH 16 17
ATOM     17  CG  PHE I   1      40.219  28.209  10.032  0.30 33.22 LIG-0.06  A 
ATOM     18  CD1 PHE I   1      39.740  26.891   9.976  0.30 33.33 LIG 0.01  A 
ATOM     19  CE1 PHE I   1      39.120  26.428   8.814  0.30 33.39 LIG 0.00  A 
ATOM     20  CZ  PHE I   1      38.987  27.261   7.723  0.30 33.40 LIG 0.00  A 
ATOM     21  CE2 PHE I   1      39.483  28.543   7.757  0.30 33.33 LIG 0.00  A 
ATOM     22  CD2 PHE I   1      40.095  28.997   8.895  0.30 33.29 LIG 0.01  A 
ENDBRANCH 16 17
ENDBRANCH 15 16
BRANCH 15 23
ATOM     23  N   PHE I   1      42.628  28.182  12.801  0.30 33.12 LIG-0.07  N 
ATOM     24 H2   PHE I   1      42.189  27.426  12.971  0.30 33.12 LIG 0.28  HD
ATOM     25 H1   PHE I   1      42.360  28.814  13.368  0.30 33.12 LIG 0.28  HD
ATOM     26 H3   PHE I   1      43.502  28.046  12.901  0.30 33.12 LIG 0.28  HD
ENDBRANCH 15 23
ENDBRANCH 12 15
ENDBRANCH 6 11
ENDBRANCH 4 6
ENDBRANCH 1 2
BRANCH 1 27
ATOM     27  CB  SER I   3      46.088  29.188   7.668  0.30 32.04 LIG 0.20  C 
BRANCH 27 28
ATOM     28 OG   SER I   3      44.913  29.959   7.505  0.30 32.08 LIG-0.40  OA
ATOM     29 HG   SER I   3      44.240  29.478   7.650  0.30 32.08 LIG 0.21  HD
ENDBRANCH 27 28
ENDBRANCH 1 27
BRANCH 1 30
ATOM     30  C   SER I   3      48.220  30.378   8.048  0.30 31.77 LIG 0.24  C 
ATOM     31  N   THR I   4      48.131  31.523   7.400  0.30 31.46 LIG-0.34  N 
ATOM     32 H    THR I   4      47.452  32.049   7.359  0.30 31.46 LIG 0.16  HD
ATOM     33 O    SER I   3      49.277  29.761   8.118  0.30 31.84 LIG-0.27  OA
BRANCH 31 34
ATOM     34  CA  THR I   4      49.320  31.914   6.688  0.30 31.16 LIG 0.20  C 
BRANCH 34 35
ATOM     35  CB  THR I   4      49.164  31.571   5.213  0.30 31.16 LIG 0.15  C 
ATOM     36  CG2 THR I   4      50.180  32.321   4.371  0.30 31.01 LIG 0.04  C 
BRANCH 35 37
ATOM     37 OG1  THR I   4      49.330  30.159   5.032  0.30 31.22 LIG-0.39  OA
ATOM     38 HG1  THR I   4      50.044  30.013   4.615  0.30 31.22 LIG 0.21  HD
ENDBRANCH 35 37
ENDBRANCH 34 35
BRANCH 34 39
ATOM     39  C   THR I   4      49.698  33.377   6.839  0.30 30.90 LIG 0.24  C 
ATOM     40  N   LYS I   5      50.660  33.622   7.697  0.30 30.59 LIG-0.35  N 
ATOM     41 H    LYS I   5      51.005  33.062   8.250  0.30 30.59 LIG 0.16  HD
ATOM     42 O    THR I   4      49.134  34.253   6.187  0.30 30.97 LIG-0.27  OA
BRANCH 40 43
ATOM     43  CA  LYS I   5      51.189  34.946   7.716  0.30 30.26 LIG 0.16  C 
BRANCH 43 44
ATOM     44  C   LYS I   5      52.392  34.905   6.791  0.30 30.28 LIG 0.22  C 
ATOM     45 O    LYS I   5      52.977  33.853   6.553  0.30 30.24 LIG-0.29  OA
ENDBRANCH 43 44
BRANCH 43 46
ATOM     46  CB  LYS I   5      51.656  35.388   9.085  0.30 30.11 LIG 0.03  C 
BRANCH 46 47
ATOM     47  CG  LYS I   5      52.591  36.581   9.052  0.30 29.43 LIG 0.00  C 
BRANCH 47 48
ATOM     48  CD  LYS I   5      53.999  36.175   9.411  0.30 28.58 LIG 0.03  C 
BRANCH 48 49
ATOM     49  CE  LYS I   5      54.956  36.538   8.286  0.30 28.11 LIG 0.23  C 
BRANCH 49 50
ATOM     50  NZ  LYS I   5      55.405  35.350   7.520  0.30 27.97 LIG-0.08  N 
ATOM     51 HZ1  LYS I   5      56.227  35.489   7.211  0.30 27.97 LIG 0.27  HD
ATOM     52 HZ2  LYS I   5      55.405  34.637   8.053  0.30 27.97 LIG 0.27  HD
ATOM     53 HZ3  LYS I   5      54.851  35.211   6.838  0.30 27.97 LIG 0.27  HD
ENDBRANCH 49 50
ENDBRANCH 48 49
ENDBRANCH 47 48
ENDBRANCH 46 47
ENDBRANCH 43 46
ENDBRANCH 40 43
ENDBRANCH 34 39
ENDBRANCH 31 34
ENDBRANCH 1 30
TORSDOF 23
ENDMDL
MODEL 10
USER: ADFR SOLUTION from run 32
USER: SCORE 9.494607 LL:  -3.265 LR:  -8.419 RR:   0.000 FEB:  -1.558
USER: RMSD 3.028215
USER: SEED 31
USER: STATUS searching
USER: GENES 25
USER: genes 0 Translation |==|  0.52696 0.43546 0.41952
USER: genes 1 Rotation |==|  0.63099 0.52814 0.45090 0.97921
USER: genes 2 Torsion [C]-CA--N-[C] |==|  0.61425
USER: genes 3 Torsion [N]-C--CA-[N] |==|  0.25065
USER: genes 4 Torsion [C]-CA--CB-[CG] |==|  0.47531
USER: genes 5 Torsion [CA]-CB--CG-[CD1] |==|  0.86521
USER: genes 6 Torsion [C]-CA--N-[C] |==|  0.70589
USER: genes 7 Torsion [N]-C--CA-[N] |==|  0.01769
USER: genes 8 Torsion [C]-CA--CB-[CG] |==|  0.19561
USER: genes 9 Torsion [CA]-CB--CG-[CD2] |==|  0.70056
USER: genes 10 Torsion [C]-CA--N-[H2] |==|  0.92749
USER: genes 11 Torsion [N]-CA--CB-[OG] |==|  0.94210
USER: genes 12 Torsion [CA]-CB--OG-[HG] |==|  0.67095
USER: genes 13 Torsion [N]-CA--C-[N] |==|  0.87992
USER: genes 14 Torsion [C]-N--CA-[CB] |==|  0.25029
USER: genes 15 Torsion [N]-CA--CB-[CG2] |==|  0.49207
USER: genes 16 Torsion [CA]-CB--OG1-[HG1] |==|  0.92383
USER: genes 17 Torsion [N]-CA--C-[N] |==|  0.25041
USER: genes 18 Torsion [C]-N--CA-[C] |==|  0.77485
USER: genes 19 Torsion [N]-CA--C-[O] |==|  0.95024
USER: genes 20 Torsion [N]-CA--CB-[CG] |==|  0.48391
USER: genes 21 Torsion [CA]-CB--CG-[CD] |==|  0.42075
USER: genes 22 Torsion [CB]-CG--CD-[CE] |==|  0.38059
USER: genes 23 Torsion [CG]-CD--CE-[NZ] |==|  0.89823
USER: genes 24 Torsion [CD]-CE--NZ-[HZ2] |==|  0.83708
ROOT
ATOM      1  CA  SER I   3      46.839  29.884   7.356  0.30 32.02 LIG 0.20  C 
ENDROOT
BRANCH 1 2
ATOM      2  N   SER I   3      46.214  30.328   8.597  0.30 32.24 LIG-0.34  N 
ATOM      3 H    SER I   3      46.211  31.173   8.759  0.30 32.24 LIG 0.16  HD
ATOM      4  C   LEU I   2      45.713  29.373   9.350  0.30 32.50 LIG 0.24  C 
ATOM      5 O    LEU I   2      45.789  28.190   9.025  0.30 32.61 LIG-0.27  OA
BRANCH 4 6
ATOM      6  CA  LEU I   2      45.024  29.738  10.628  0.30 32.74 LIG 0.18  C 
BRANCH 6 7
ATOM      7  CB  LEU I   2      45.217  28.667  11.707  0.30 32.79 LIG 0.04  C 
BRANCH 7 8
ATOM      8  CG  LEU I   2      44.721  29.065  13.118  0.30 32.97 LIG-0.02  C 
ATOM      9  CD1 LEU I   2      45.244  30.442  13.490  0.30 33.23 LIG 0.01  C 
ATOM     10  CD2 LEU I   2      43.202  29.035  13.199  0.30 33.13 LIG 0.01  C 
ENDBRANCH 7 8
ENDBRANCH 6 7
BRANCH 6 11
ATOM     11  N   LEU I   2      43.720  29.866  10.047  0.30 32.86 LIG-0.35  N 
ATOM     12  C   PHE I   1      43.157  31.032   9.842  0.30 33.00 LIG 0.25  C 
ATOM     13 O    PHE I   1      43.592  32.075  10.326  0.30 33.06 LIG-0.27  OA
ATOM     14 H    LEU I   2      43.348  29.117   9.849  0.30 32.86 LIG 0.16  HD
BRANCH 12 15
ATOM     15  CA  PHE I   1      41.908  31.039   8.970  0.30 33.09 LIG 0.28  C 
BRANCH 15 16
ATOM     16  CB  PHE I   1      40.768  31.785   9.624  0.30 33.12 LIG 0.08  C 
BRANCH 16 17
ATOM     17  CG  PHE I   1      40.892  33.287   9.734  0.30 33.22 LIG-0.06  A 
ATOM     18  CD1 PHE I   1      40.788  34.169   8.647  0.30 33.33 LIG 0.01  A 
ATOM     19  CE1 PHE I   1      40.878  35.546   8.862  0.30 33.39 LIG 0.00  A 
ATOM     20  CZ  PHE I   1      41.078  36.036  10.136  0.30 33.40 LIG 0.00  A 
ATOM     21  CE2 PHE I   1      41.215  35.177  11.201  0.30 33.33 LIG 0.00  A 
ATOM     22  CD2 PHE I   1      41.130  33.827  10.992  0.30 33.29 LIG 0.01  A 
ENDBRANCH 16 17
ENDBRANCH 15 16
BRANCH 15 23
ATOM     23  N   PHE I   1      41.489  29.679   8.643  0.30 33.12 LIG-0.07  N 
ATOM     24 H2   PHE I   1      42.193  29.136   8.672  0.30 33.12 LIG 0.28  HD
ATOM     25 H1   PHE I   1      41.136  29.665   7.826  0.30 33.12 LIG 0.28  HD
ATOM     26 H3   PHE I   1      40.881  29.406   9.233  0.30 33.12 LIG 0.28  HD
ENDBRANCH 15 23
ENDBRANCH 12 15
ENDBRANCH 6 11
ENDBRANCH 4 6
ENDBRANCH 1 2
BRANCH 1 27
ATOM     27  CB  SER I   3      45.853  30.050   6.196  0.30 32.04 LIG 0.20  C 
BRANCH 27 28
ATOM     28 OG   SER I   3      44.521  30.117   6.668  0.30 32.08 LIG-0.40  OA
ATOM     29 HG   SER I   3      44.080  29.475   6.353  0.30 32.08 LIG 0.21  HD
ENDBRANCH 27 28
ENDBRANCH 1 27
BRANCH 1 30
ATOM     30  C   SER I   3      48.125  30.589   7.005  0.30 31.77 LIG 0.24  C 
ATOM     31  N   THR I   4      48.219  31.898   7.146  0.30 31.46 LIG-0.34  N 
ATOM     32 H    THR I   4      47.636  32.429   7.486  0.30 31.46 LIG 0.16  HD
ATOM     33 O    SER I   3      49.066  29.920   6.595  0.30 31.84 LIG-0.27  OA
BRANCH 31 34
ATOM     34  CA  THR I   4      49.448  32.474   6.666  0.30 31.16 LIG 0.20  C 
BRANCH 34 35
ATOM     35  CB  THR I   4      49.289  32.862   5.203  0.30 31.16 LIG 0.15  C 
ATOM     36  CG2 THR I   4      50.544  33.539   4.681  0.30 31.01 LIG 0.04  C 
BRANCH 35 37
ATOM     37 OG1  THR I   4      49.011  31.690   4.427  0.30 31.22 LIG-0.39  OA
ATOM     38 HG1  THR I   4      49.344  31.018   4.806  0.30 31.22 LIG 0.21  HD
ENDBRANCH 35 37
ENDBRANCH 34 35
BRANCH 34 39
ATOM     39  C   THR I   4      49.941  33.669   7.464  0.30 30.90 LIG 0.24  C 
ATOM     40  N   LYS I   5      50.743  33.383   8.463  0.30 30.59 LIG-0.35  N 
ATOM     41 H    LYS I   5      50.915  32.599   8.771  0.30 30.59 LIG 0.16  HD
ATOM     42 O    THR I   4      49.608  34.814   7.172  0.30 30.97 LIG-0.27  OA
BRANCH 40 43
ATOM     43  CA  LYS I   5      51.394  34.477   9.104  0.30 30.26 LIG 0.16  C 
BRANCH 43 44
ATOM     44  C   LYS I   5      52.581  34.807   8.216  0.30 30.28 LIG 0.22  C 
ATOM     45 O    LYS I   5      52.999  34.004   7.388  0.30 30.24 LIG-0.29  OA
ENDBRANCH 43 44
BRANCH 43 46
ATOM     46  CB  LYS I   5      51.912  34.144  10.486  0.30 30.11 LIG 0.03  C 
BRANCH 46 47
ATOM     47  CG  LYS I   5      52.725  35.259  11.114  0.30 29.43 LIG 0.00  C 
BRANCH 47 48
ATOM     48  CD  LYS I   5      52.628  35.218  12.619  0.30 28.58 LIG 0.03  C 
BRANCH 48 49
ATOM     49  CE  LYS I   5      53.995  35.451  13.243  0.30 28.11 LIG 0.23  C 
BRANCH 49 50
ATOM     50  NZ  LYS I   5      55.088  34.826  12.459  0.30 27.97 LIG-0.08  N 
ATOM     51 HZ1  LYS I   5      55.866  34.969  12.867  0.30 27.97 LIG 0.27  HD
ATOM     52 HZ2  LYS I   5      54.944  33.950  12.395  0.30 27.97 LIG 0.27  HD
ATOM     53 HZ3  LYS I   5      55.111  35.184  11.645  0.30 27.97 LIG 0.27  HD
ENDBRANCH 49 50
ENDBRANCH 48 49
ENDBRANCH 47 48
ENDBRANCH 46 47
ENDBRANCH 43 46
ENDBRANCH 40 43
ENDBRANCH 34 39
ENDBRANCH 31 34
ENDBRANCH 1 30
TORSDOF 23
ENDMDL
MODEL 11
USER: ADFR SOLUTION from run 4
USER: SCORE 8.834622 LL:  -2.776 LR:  -8.258 RR:   0.000 FEB:  -1.397
USER: RMSD 2.759490
USER: SEED 467234
USER: STATUS no improvement in best 3 clusters for 5 generations
USER: GENES 25
USER: genes 0 Translation |==|  0.53464 0.44074 0.48180
USER: genes 1 Rotation |==|  0.41475 0.56789 0.46116 0.98643
USER: genes 2 Torsion [C]-CA--N-[C] |==|  0.51254
USER: genes 3 Torsion [N]-C--CA-[N] |==|  0.43316
USER: genes 4 Torsion [C]-CA--CB-[CG] |==|  0.37576
USER: genes 5 Torsion [CA]-CB--CG-[CD1] |==|  0.00851
USER: genes 6 Torsion [C]-CA--N-[C] |==|  0.76307
USER: genes 7 Torsion [N]-C--CA-[N] |==|  0.87302
USER: genes 8 Torsion [C]-CA--CB-[CG] |==|  0.26284
USER: genes 9 Torsion [CA]-CB--CG-[CD2] |==|  0.62633
USER: genes 10 Torsion [C]-CA--N-[H2] |==|  0.80605
USER: genes 11 Torsion [N]-CA--CB-[OG] |==|  0.16349
USER: genes 12 Torsion [CA]-CB--OG-[HG] |==|  0.69930
USER: genes 13 Torsion [N]-CA--C-[N] |==|  0.92781
USER: genes 14 Torsion [C]-N--CA-[CB] |==|  0.26840
USER: genes 15 Torsion [N]-CA--CB-[CG2] |==|  0.49343
USER: genes 16 Torsion [CA]-CB--OG1-[HG1] |==|  0.09074
USER: genes 17 Torsion [N]-CA--C-[N] |==|  0.97484
USER: genes 18 Torsion [C]-N--CA-[C] |==|  0.20023
USER: genes 19 Torsion [N]-CA--C-[O] |==|  0.99902
USER: genes 20 Torsion [N]-CA--CB-[CG] |==|  0.44763
USER: genes 21 Torsion [CA]-CB--CG-[CD] |==|  0.31774
USER: genes 22 Torsion [CB]-CG--CD-[CE] |==|  0.37844
USER: genes 23 Torsion [CG]-CD--CE-[NZ] |==|  0.83367
USER: genes 24 Torsion [CD]-CE--NZ-[HZ2] |==|  0.81503
ROOT
ATOM      1  CA  SER I   3      47.069  30.042   9.224  0.30 32.02 LIG 0.20  C 
ENDROOT
BRANCH 1 2
ATOM      2  N   SER I   3      46.557  31.253   9.857  0.30 32.24 LIG-0.34  N 
ATOM      3 H    SER I   3      46.829  32.008   9.547  0.30 32.24 LIG 0.16  HD
ATOM      4  C   LEU I   2      45.718  31.058  10.851  0.30 32.50 LIG 0.24  C 
ATOM      5 O    LEU I   2      45.410  29.927  11.222  0.30 32.61 LIG-0.27  OA
BRANCH 4 6
ATOM      6  CA  LEU I   2      45.116  32.243  11.540  0.30 32.74 LIG 0.18  C 
BRANCH 6 7
ATOM      7  CB  LEU I   2      46.066  32.842  12.583  0.30 32.79 LIG 0.04  C 
BRANCH 7 8
ATOM      8  CG  LEU I   2      46.172  34.385  12.559  0.30 32.97 LIG-0.02  C 
ATOM      9  CD1 LEU I   2      45.224  34.962  11.523  0.30 33.23 LIG 0.01  C 
ATOM     10  CD2 LEU I   2      45.887  34.980  13.930  0.30 33.13 LIG 0.01  C 
ENDBRANCH 7 8
ENDBRANCH 6 7
BRANCH 6 11
ATOM     11  N   LEU I   2      43.958  31.547  12.020  0.30 32.86 LIG-0.35  N 
ATOM     12  C   PHE I   1      42.881  31.394  11.289  0.30 33.00 LIG 0.25  C 
ATOM     13 O    PHE I   1      42.692  32.013  10.245  0.30 33.06 LIG-0.27  OA
ATOM     14 H    LEU I   2      44.036  31.244  12.821  0.30 32.86 LIG 0.16  HD
BRANCH 12 15
ATOM     15  CA  PHE I   1      41.845  30.404  11.807  0.30 33.09 LIG 0.28  C 
BRANCH 15 16
ATOM     16  CB  PHE I   1      41.023  30.986  12.934  0.30 33.12 LIG 0.08  C 
BRANCH 16 17
ATOM     17  CG  PHE I   1      39.702  31.626  12.573  0.30 33.22 LIG-0.06  A 
ATOM     18  CD1 PHE I   1      38.765  31.061  11.695  0.30 33.33 LIG 0.01  A 
ATOM     19  CE1 PHE I   1      37.554  31.717  11.459  0.30 33.39 LIG 0.00  A 
ATOM     20  CZ  PHE I   1      37.287  32.919  12.079  0.30 33.40 LIG 0.00  A 
ATOM     21  CE2 PHE I   1      38.214  33.496  12.915  0.30 33.33 LIG 0.00  A 
ATOM     22  CD2 PHE I   1      39.402  32.856  13.145  0.30 33.29 LIG 0.01  A 
ENDBRANCH 16 17
ENDBRANCH 15 16
BRANCH 15 23
ATOM     23  N   PHE I   1      42.477  29.163  12.243  0.30 33.12 LIG-0.07  N 
ATOM     24 H2   PHE I   1      42.785  28.721  11.534  0.30 33.12 LIG 0.28  HD
ATOM     25 H1   PHE I   1      41.880  28.659  12.669  0.30 33.12 LIG 0.28  HD
ATOM     26 H3   PHE I   1      43.152  29.350  12.792  0.30 33.12 LIG 0.28  HD
ENDBRANCH 15 23
ENDBRANCH 12 15
ENDBRANCH 6 11
ENDBRANCH 4 6
ENDBRANCH 1 2
BRANCH 1 27
ATOM     27  CB  SER I   3      45.909  29.250   8.616  0.30 32.04 LIG 0.20  C 
BRANCH 27 28
ATOM     28 OG   SER I   3      45.212  30.024   7.659  0.30 32.08 LIG-0.40  OA
ATOM     29 HG   SER I   3      44.462  30.243   7.968  0.30 32.08 LIG 0.21  HD
ENDBRANCH 27 28
ENDBRANCH 1 27
BRANCH 1 30
ATOM     30  C   SER I   3      48.110  30.276   8.157  0.30 31.77 LIG 0.24  C 
ATOM     31  N   THR I   4      48.135  31.419   7.500  0.30 31.46 LIG-0.34  N 
ATOM     32 H    THR I   4      47.651  32.115   7.643  0.30 31.46 LIG 0.16  HD
ATOM     33 O    SER I   3      48.921  29.386   7.927  0.30 31.84 LIG-0.27  OA
BRANCH 31 34
ATOM     34  CA  THR I   4      49.090  31.482   6.425  0.30 31.16 LIG 0.20  C 
BRANCH 34 35
ATOM     35  CB  THR I   4      48.396  31.161   5.109  0.30 31.16 LIG 0.15  C 
ATOM     36  CG2 THR I   4      49.363  31.275   3.944  0.30 31.01 LIG 0.04  C 
BRANCH 35 37
ATOM     37 OG1  THR I   4      47.858  29.835   5.166  0.30 31.22 LIG-0.39  OA
ATOM     38 HG1  THR I   4      47.620  29.662   5.953  0.30 31.22 LIG 0.21  HD
ENDBRANCH 35 37
ENDBRANCH 34 35
BRANCH 34 39
ATOM     39  C   THR I   4      49.827  32.805   6.308  0.30 30.90 LIG 0.24  C 
ATOM     40  N   LYS I   5      49.371  33.770   7.072  0.30 30.59 LIG-0.35  N 
ATOM     41 H    LYS I   5      48.643  33.758   7.530  0.30 30.59 LIG 0.16  HD
ATOM     42 O    THR I   4      50.786  32.938   5.552  0.30 30.97 LIG-0.27  OA
BRANCH 40 43
ATOM     43  CA  LYS I   5      50.156  34.958   7.153  0.30 30.26 LIG 0.16  C 
BRANCH 43 44
ATOM     44  C   LYS I   5      49.983  35.639   5.807  0.30 30.28 LIG 0.22  C 
ATOM     45 O    LYS I   5      49.285  35.144   4.928  0.30 30.24 LIG-0.29  OA
ENDBRANCH 43 44
BRANCH 43 46
ATOM     46  CB  LYS I   5      51.630  34.692   7.366  0.30 30.11 LIG 0.03  C 
BRANCH 46 47
ATOM     47  CG  LYS I   5      52.517  35.868   7.007  0.30 29.43 LIG 0.00  C 
BRANCH 47 48
ATOM     48  CD  LYS I   5      53.208  36.417   8.230  0.30 28.58 LIG 0.03  C 
BRANCH 48 49
ATOM     49  CE  LYS I   5      54.670  36.706   7.925  0.30 28.11 LIG 0.23  C 
BRANCH 49 50
ATOM     50  NZ  LYS I   5      55.409  35.492   7.499  0.30 27.97 LIG-0.08  N 
ATOM     51 HZ1  LYS I   5      56.229  35.719   7.239  0.30 27.97 LIG 0.27  HD
ATOM     52 HZ2  LYS I   5      55.460  34.922   8.180  0.30 27.97 LIG 0.27  HD
ATOM     53 HZ3  LYS I   5      54.980  35.107   6.820  0.30 27.97 LIG 0.27  HD
ENDBRANCH 49 50
ENDBRANCH 48 49
ENDBRANCH 47 48
ENDBRANCH 46 47
ENDBRANCH 43 46
ENDBRANCH 40 43
ENDBRANCH 34 39
ENDBRANCH 31 34
ENDBRANCH 1 30
TORSDOF 23
ENDMDL
MODEL 12
USER: ADFR SOLUTION from run 12
USER: SCORE 9.806261 LL:  -3.439 LR:  -8.201 RR:   0.000 FEB:  -1.340
USER: RMSD 2.991859
USER: SEED 185701
USER: STATUS searching
USER: GENES 25
USER: genes 0 Translation |==|  0.53213 0.44094 0.45987
USER: genes 1 Rotation |==|  0.56439 0.48482 0.46722 0.99452
USER: genes 2 Torsion [C]-CA--N-[C] |==|  0.60745
USER: genes 3 Torsion [N]-C--CA-[N] |==|  0.34119
USER: genes 4 Torsion [C]-CA--CB-[CG] |==|  0.31578
USER: genes 5 Torsion [CA]-CB--CG-[CD1] |==|  0.95612
USER: genes 6 Torsion [C]-CA--N-[C] |==|  0.79280
USER: genes 7 Torsion [N]-C--CA-[N] |==|  0.13515
USER: genes 8 Torsion [C]-CA--CB-[CG] |==|  0.19844
USER: genes 9 Torsion [CA]-CB--CG-[CD2] |==|  0.74845
USER: genes 10 Torsion [C]-CA--N-[H2] |==|  0.28611
USER: genes 11 Torsion [N]-CA--CB-[OG] |==|  0.97810
USER: genes 12 Torsion [CA]-CB--OG-[HG] |==|  0.65918
USER: genes 13 Torsion [N]-CA--C-[N] |==|  0.90349
USER: genes 14 Torsion [C]-N--CA-[CB] |==|  0.26106
USER: genes 15 Torsion [N]-CA--CB-[CG2] |==|  0.49241
USER: genes 16 Torsion [CA]-CB--OG1-[HG1] |==|  0.89826
USER: genes 17 Torsion [N]-CA--C-[N] |==|  0.33541
USER: genes 18 Torsion [C]-N--CA-[C] |==|  0.75272
USER: genes 19 Torsion [N]-CA--C-[O] |==|  0.91662
USER: genes 20 Torsion [N]-CA--CB-[CG] |==|  0.49659
USER: genes 21 Torsion [CA]-CB--CG-[CD] |==|  0.45389
USER: genes 22 Torsion [CB]-CG--CD-[CE] |==|  0.35039
USER: genes 23 Torsion [CG]-CD--CE-[NZ] |==|  0.86330
USER: genes 24 Torsion [CD]-CE--NZ-[HZ2] |==|  0.09922
ROOT
ATOM      1  CA  SER I   3      46.994  30.048   8.566  0.30 32.02 LIG 0.20  C 
ENDROOT
BRANCH 1 2
ATOM      2  N   SER I   3      46.168  30.782   9.520  0.30 32.24 LIG-0.34  N 
ATOM      3 H    SER I   3      46.152  31.639   9.453  0.30 32.24 LIG 0.16  HD
ATOM      4  C   LEU I   2      45.525  30.040  10.396  0.30 32.50 LIG 0.24  C 
ATOM      5 O    LEU I   2      45.636  28.816  10.409  0.30 32.61 LIG-0.27  OA
BRANCH 4 6
ATOM      6  CA  LEU I   2      44.628  30.704  11.394  0.30 32.74 LIG 0.18  C 
BRANCH 6 7
ATOM      7  CB  LEU I   2      45.145  30.539  12.827  0.30 32.79 LIG 0.04  C 
BRANCH 7 8
ATOM      8  CG  LEU I   2      45.599  31.849  13.512  0.30 32.97 LIG-0.02  C 
ATOM      9  CD1 LEU I   2      45.790  32.945  12.478  0.30 33.23 LIG 0.01  C 
ATOM     10  CD2 LEU I   2      44.605  32.290  14.576  0.30 33.13 LIG 0.01  C 
ENDBRANCH 7 8
ENDBRANCH 6 7
BRANCH 6 11
ATOM     11  N   LEU I   2      43.450  29.974  11.025  0.30 32.86 LIG-0.35  N 
ATOM     12  C   PHE I   1      42.788  30.224   9.922  0.30 33.00 LIG 0.25  C 
ATOM     13 O    PHE I   1      42.983  31.230   9.243  0.30 33.06 LIG-0.27  OA
ATOM     14 H    LEU I   2      43.224  29.365  11.588  0.30 32.86 LIG 0.16  HD
BRANCH 12 15
ATOM     15  CA  PHE I   1      41.736  29.201   9.515  0.30 33.09 LIG 0.28  C 
BRANCH 15 16
ATOM     16  CB  PHE I   1      40.904  29.682   8.349  0.30 33.12 LIG 0.08  C 
BRANCH 16 17
ATOM     17  CG  PHE I   1      41.571  29.739   6.994  0.30 33.22 LIG-0.06  A 
ATOM     18  CD1 PHE I   1      41.598  28.671   6.083  0.30 33.33 LIG 0.01  A 
ATOM     19  CE1 PHE I   1      42.209  28.839   4.838  0.30 33.39 LIG 0.00  A 
ATOM     20  CZ  PHE I   1      42.790  30.046   4.510  0.30 33.40 LIG 0.00  A 
ATOM     21  CE2 PHE I   1      42.797  31.086   5.410  0.30 33.33 LIG 0.00  A 
ATOM     22  CD2 PHE I   1      42.202  30.922   6.632  0.30 33.29 LIG 0.01  A 
ENDBRANCH 16 17
ENDBRANCH 15 16
BRANCH 15 23
ATOM     23  N   PHE I   1      40.868  28.865  10.640  0.30 33.12 LIG-0.07  N 
ATOM     24 H2   PHE I   1      40.087  29.283  10.548  0.30 33.12 LIG 0.28  HD
ATOM     25 H1   PHE I   1      41.254  29.122  11.400  0.30 33.12 LIG 0.28  HD
ATOM     26 H3   PHE I   1      40.732  27.986  10.659  0.30 33.12 LIG 0.28  HD
ENDBRANCH 15 23
ENDBRANCH 12 15
ENDBRANCH 6 11
ENDBRANCH 4 6
ENDBRANCH 1 2
BRANCH 1 27
ATOM     27  CB  SER I   3      46.209  29.826   7.271  0.30 32.04 LIG 0.20  C 
BRANCH 27 28
ATOM     28 OG   SER I   3      44.860  30.226   7.419  0.30 32.08 LIG-0.40  OA
ATOM     29 HG   SER I   3      44.355  29.578   7.246  0.30 32.08 LIG 0.21  HD
ENDBRANCH 27 28
ENDBRANCH 1 27
BRANCH 1 30
ATOM     30  C   SER I   3      48.310  30.705   8.230  0.30 31.77 LIG 0.24  C 
ATOM     31  N   THR I   4      48.394  32.020   8.171  0.30 31.46 LIG-0.34  N 
ATOM     32 H    THR I   4      47.783  32.592   8.368  0.30 31.46 LIG 0.16  HD
ATOM     33 O    SER I   3      49.283  29.990   8.021  0.30 31.84 LIG-0.27  OA
BRANCH 31 34
ATOM     34  CA  THR I   4      49.664  32.529   7.724  0.30 31.16 LIG 0.20  C 
BRANCH 34 35
ATOM     35  CB  THR I   4      49.613  32.771   6.222  0.30 31.16 LIG 0.15  C 
ATOM     36  CG2 THR I   4      50.916  33.372   5.725  0.30 31.01 LIG 0.04  C 
BRANCH 35 37
ATOM     37 OG1  THR I   4      49.361  31.532   5.549  0.30 31.22 LIG-0.39  OA
ATOM     38 HG1  THR I   4      49.760  30.910   5.948  0.30 31.22 LIG 0.21  HD
ENDBRANCH 35 37
ENDBRANCH 34 35
BRANCH 34 39
ATOM     39  C   THR I   4      50.127  33.790   8.433  0.30 30.90 LIG 0.24  C 
ATOM     40  N   LYS I   5      51.277  33.692   9.058  0.30 30.59 LIG-0.35  N 
ATOM     41 H    LYS I   5      51.721  32.969   9.198  0.30 30.59 LIG 0.16  HD
ATOM     42 O    THR I   4      49.461  34.821   8.403  0.30 30.97 LIG-0.27  OA
BRANCH 40 43
ATOM     43  CA  LYS I   5      51.849  34.899   9.555  0.30 30.26 LIG 0.16  C 
BRANCH 43 44
ATOM     44  C   LYS I   5      52.695  35.435   8.414  0.30 30.28 LIG 0.22  C 
ATOM     45 O    LYS I   5      53.222  34.681   7.603  0.30 30.24 LIG-0.29  OA
ENDBRANCH 43 44
BRANCH 43 46
ATOM     46  CB  LYS I   5      52.746  34.691  10.756  0.30 30.11 LIG 0.03  C 
BRANCH 46 47
ATOM     47  CG  LYS I   5      53.379  35.969  11.268  0.30 29.43 LIG 0.00  C 
BRANCH 47 48
ATOM     48  CD  LYS I   5      53.917  35.785  12.666  0.30 28.58 LIG 0.03  C 
BRANCH 48 49
ATOM     49  CE  LYS I   5      55.382  36.191  12.726  0.30 28.11 LIG 0.23  C 
BRANCH 49 50
ATOM     50  NZ  LYS I   5      56.184  35.576  11.640  0.30 27.97 LIG-0.08  N 
ATOM     51 HZ1  LYS I   5      56.438  34.759  11.885  0.30 27.97 LIG 0.27  HD
ATOM     52 HZ2  LYS I   5      55.692  35.524  10.900  0.30 27.97 LIG 0.27  HD
ATOM     53 HZ3  LYS I   5      56.904  36.075  11.484  0.30 27.97 LIG 0.27  HD
ENDBRANCH 49 50
ENDBRANCH 48 49
ENDBRANCH 47 48
ENDBRANCH 46 47
ENDBRANCH 43 46
ENDBRANCH 40 43
ENDBRANCH 34 39
ENDBRANCH 31 34
ENDBRANCH 1 30
TORSDOF 23
ENDMDL
MODEL 13
USER: ADFR SOLUTION from run 50
USER: SCORE 9.713915 LL:  -3.373 LR:  -8.075 RR:   0.000 FEB:  -1.214
USER: RMSD 2.957975
USER: SEED 49
USER: STATUS no improvement in best 9 clusters for 5 generations
USER: GENES 25
USER: genes 0 Translation |==|  0.53334 0.44025 0.41917
USER: genes 1 Rotation |==|  0.58688 0.53436 0.44258 0.98783
USER: genes 2 Torsion [C]-CA--N-[C] |==|  0.57856
USER: genes 3 Torsion [N]-C--CA-[N] |==|  0.42706
USER: genes 4 Torsion [C]-CA--CB-[CG] |==|  0.24481
USER: genes 5 Torsion [CA]-CB--CG-[CD1] |==|  0.75694
USER: genes 6 Torsion [C]-CA--N-[C] |==|  0.76302
USER: genes 7 Torsion [N]-C--CA-[N] |==|  0.16770
USER: genes 8 Torsion [C]-CA--CB-[CG] |==|  0.33565
USER: genes 9 Torsion [CA]-CB--CG-[CD2] |==|  0.65104
USER: genes 10 Torsion [C]-CA--N-[H2] |==|  0.94734
USER: genes 11 Torsion [N]-CA--CB-[OG] |==|  0.48555
USER: genes 12 Torsion [CA]-CB--OG-[HG] |==|  0.67417
USER: genes 13 Torsion [N]-CA--C-[N] |==|  0.93970
USER: genes 14 Torsion [C]-N--CA-[CB] |==|  0.20043
USER: genes 15 Torsion [N]-CA--CB-[CG2] |==|  0.23405
USER: genes 16 Torsion [CA]-CB--OG1-[HG1] |==|  0.66776
USER: genes 17 Torsion [N]-CA--C-[N] |==|  0.45649
USER: genes 18 Torsion [C]-N--CA-[C] |==|  0.70641
USER: genes 19 Torsion [N]-CA--C-[O] |==|  0.04728
USER: genes 20 Torsion [N]-CA--CB-[CG] |==|  0.65715
USER: genes 21 Torsion [CA]-CB--CG-[CD] |==|  0.10135
USER: genes 22 Torsion [CB]-CG--CD-[CE] |==|  0.43764
USER: genes 23 Torsion [CG]-CD--CE-[NZ] |==|  0.85244
USER: genes 24 Torsion [CD]-CE--NZ-[HZ2] |==|  0.86172
ROOT
ATOM      1  CA  SER I   3      47.030  30.028   7.345  0.30 32.02 LIG 0.20  C 
ENDROOT
BRANCH 1 2
ATOM      2  N   SER I   3      46.471  30.695   8.516  0.30 32.24 LIG-0.34  N 
ATOM      3 H    SER I   3      46.630  31.535   8.608  0.30 32.24 LIG 0.16  HD
ATOM      4  C   LEU I   2      45.769  29.926   9.320  0.30 32.50 LIG 0.24  C 
ATOM      5 O    LEU I   2      45.617  28.727   9.098  0.30 32.61 LIG-0.27  OA
BRANCH 4 6
ATOM      6  CA  LEU I   2      45.129  30.531  10.532  0.30 32.74 LIG 0.18  C 
BRANCH 6 7
ATOM      7  CB  LEU I   2      46.107  30.627  11.707  0.30 32.79 LIG 0.04  C 
BRANCH 7 8
ATOM      8  CG  LEU I   2      46.949  31.924  11.752  0.30 32.97 LIG-0.02  C 
ATOM      9  CD1 LEU I   2      48.214  31.759  10.929  0.30 33.23 LIG 0.01  C 
ATOM     10  CD2 LEU I   2      46.148  33.121  11.261  0.30 33.13 LIG 0.01  C 
ENDBRANCH 7 8
ENDBRANCH 6 7
BRANCH 6 11
ATOM     11  N   LEU I   2      44.073  29.565  10.624  0.30 32.86 LIG-0.35  N 
ATOM     12  C   PHE I   1      42.957  29.681   9.947  0.30 33.00 LIG 0.25  C 
ATOM     13 O    PHE I   1      42.636  30.716   9.367  0.30 33.06 LIG-0.27  OA
ATOM     14 H    LEU I   2      44.240  28.913  11.158  0.30 32.86 LIG 0.16  HD
BRANCH 12 15
ATOM     15  CA  PHE I   1      42.049  28.458   9.919  0.30 33.09 LIG 0.28  C 
BRANCH 15 16
ATOM     16  CB  PHE I   1      40.838  28.675   9.042  0.30 33.12 LIG 0.08  C 
BRANCH 16 17
ATOM     17  CG  PHE I   1      40.642  27.729   7.879  0.30 33.22 LIG-0.06  A 
ATOM     18  CD1 PHE I   1      40.607  26.331   7.997  0.30 33.33 LIG 0.01  A 
ATOM     19  CE1 PHE I   1      40.381  25.546   6.864  0.30 33.39 LIG 0.00  A 
ATOM     20  CZ  PHE I   1      40.202  26.144   5.634  0.30 33.40 LIG 0.00  A 
ATOM     21  CE2 PHE I   1      40.268  27.512   5.504  0.30 33.33 LIG 0.00  A 
ATOM     22  CD2 PHE I   1      40.493  28.282   6.614  0.30 33.29 LIG 0.01  A 
ENDBRANCH 16 17
ENDBRANCH 15 16
BRANCH 15 23
ATOM     23  N   PHE I   1      41.627  28.088  11.267  0.30 33.12 LIG-0.07  N 
ATOM     24 H2   PHE I   1      42.177  28.455  11.862  0.30 33.12 LIG 0.28  HD
ATOM     25 H1   PHE I   1      41.648  27.202  11.352  0.30 33.12 LIG 0.28  HD
ATOM     26 H3   PHE I   1      40.798  28.380  11.409  0.30 33.12 LIG 0.28  HD
ENDBRANCH 15 23
ENDBRANCH 12 15
ENDBRANCH 6 11
ENDBRANCH 4 6
ENDBRANCH 1 2
BRANCH 1 27
ATOM     27  CB  SER I   3      45.990  30.002   6.222  0.30 32.04 LIG 0.20  C 
BRANCH 27 28
ATOM     28 OG   SER I   3      46.541  29.468   5.032  0.30 32.08 LIG-0.40  OA
ATOM     29 HG   SER I   3      46.530  30.055   4.431  0.30 32.08 LIG 0.21  HD
ENDBRANCH 27 28
ENDBRANCH 1 27
BRANCH 1 30
ATOM     30  C   SER I   3      48.303  30.639   6.815  0.30 31.77 LIG 0.24  C 
ATOM     31  N   THR I   4      48.600  31.893   7.097  0.30 31.46 LIG-0.34  N 
ATOM     32 H    THR I   4      48.175  32.425   7.622  0.30 31.46 LIG 0.16  HD
ATOM     33 O    SER I   3      49.043  29.945   6.128  0.30 31.84 LIG-0.27  OA
BRANCH 31 34
ATOM     34  CA  THR I   4      49.773  32.404   6.439  0.30 31.16 LIG 0.20  C 
BRANCH 34 35
ATOM     35  CB  THR I   4      49.476  32.613   4.961  0.30 31.16 LIG 0.15  C 
ATOM     36  CG2 THR I   4      48.815  33.961   4.727  0.30 31.01 LIG 0.04  C 
BRANCH 35 37
ATOM     37 OG1  THR I   4      50.695  32.533   4.214  0.30 31.22 LIG-0.39  OA
ATOM     38 HG1  THR I   4      50.827  33.260   3.814  0.30 31.22 LIG 0.21  HD
ENDBRANCH 35 37
ENDBRANCH 34 35
BRANCH 34 39
ATOM     39  C   THR I   4      50.330  33.684   7.038  0.30 30.90 LIG 0.24  C 
ATOM     40  N   LYS I   5      51.554  33.987   6.674  0.30 30.59 LIG-0.35  N 
ATOM     41 H    LYS I   5      52.095  33.484   6.235  0.30 30.59 LIG 0.16  HD
ATOM     42 O    THR I   4      49.661  34.375   7.802  0.30 30.97 LIG-0.27  OA
BRANCH 40 43
ATOM     43  CA  LYS I   5      52.037  35.278   7.040  0.30 30.26 LIG 0.16  C 
BRANCH 43 44
ATOM     44  C   LYS I   5      52.025  36.085   5.755  0.30 30.28 LIG 0.22  C 
ATOM     45 O    LYS I   5      51.379  35.718   4.779  0.30 30.24 LIG-0.29  OA
ENDBRANCH 43 44
BRANCH 43 46
ATOM     46  CB  LYS I   5      53.451  35.260   7.579  0.30 30.11 LIG 0.03  C 
BRANCH 46 47
ATOM     47  CG  LYS I   5      53.579  35.861   8.965  0.30 29.43 LIG 0.00  C 
BRANCH 47 48
ATOM     48  CD  LYS I   5      52.374  35.533   9.812  0.30 28.58 LIG 0.03  C 
BRANCH 48 49
ATOM     49  CE  LYS I   5      52.723  35.634  11.288  0.30 28.11 LIG 0.23  C 
BRANCH 49 50
ATOM     50  NZ  LYS I   5      53.914  34.825  11.645  0.30 27.97 LIG-0.08  N 
ATOM     51 HZ1  LYS I   5      53.997  34.792  12.530  0.30 27.97 LIG 0.27  HD
ATOM     52 HZ2  LYS I   5      53.819  34.000  11.324  0.30 27.97 LIG 0.27  HD
ATOM     53 HZ3  LYS I   5      54.642  35.198  11.294  0.30 27.97 LIG 0.27  HD
ENDBRANCH 49 50
ENDBRANCH 48 49
ENDBRANCH 47 48
ENDBRANCH 46 47
ENDBRANCH 43 46
ENDBRANCH 40 43
ENDBRANCH 34 39
ENDBRANCH 31 34
ENDBRANCH 1 30
TORSDOF 23
ENDMDL
MODEL 14
USER: ADFR SOLUTION from run 48
USER: SCORE 8.633113 LL:  -2.982 LR:  -7.997 RR:   0.000 FEB:  -1.136
USER: RMSD 1.679522
USER: SEED 47
USER: STATUS no improvement in best 5 clusters for 5 generations
USER: GENES 25
USER: genes 0 Translation |==|  0.53297 0.43566 0.46410
USER: genes 1 Rotation |==|  0.50326 0.47931 0.51268 0.99940
USER: genes 2 Torsion [C]-CA--N-[C] |==|  0.52984
USER: genes 3 Torsion [N]-C--CA-[N] |==|  0.42771
USER: genes 4 Torsion [C]-CA--CB-[CG] |==|  0.33292
USER: genes 5 Torsion [CA]-CB--CG-[CD1] |==|  0.81925
USER: genes 6 Torsion [C]-CA--N-[C] |==|  0.62840
USER: genes 7 Torsion [N]-C--CA-[N] |==|  0.00481
USER: genes 8 Torsion [C]-CA--CB-[CG] |==|  0.28282
USER: genes 9 Torsion [CA]-CB--CG-[CD2] |==|  0.65161
USER: genes 10 Torsion [C]-CA--N-[H2] |==|  0.07327
USER: genes 11 Torsion [N]-CA--CB-[OG] |==|  0.34095
USER: genes 12 Torsion [CA]-CB--OG-[HG] |==|  0.84898
USER: genes 13 Torsion [N]-CA--C-[N] |==|  0.97632
USER: genes 14 Torsion [C]-N--CA-[CB] |==|  0.26259
USER: genes 15 Torsion [N]-CA--CB-[CG2] |==|  0.56435
USER: genes 16 Torsion [CA]-CB--OG1-[HG1] |==|  0.74065
USER: genes 17 Torsion [N]-CA--C-[N] |==|  0.31363
USER: genes 18 Torsion [C]-N--CA-[C] |==|  0.21454
USER: genes 19 Torsion [N]-CA--C-[O] |==|  0.99143
USER: genes 20 Torsion [N]-CA--CB-[CG] |==|  0.60185
USER: genes 21 Torsion [CA]-CB--CG-[CD] |==|  0.01340
USER: genes 22 Torsion [CB]-CG--CD-[CE] |==|  0.38498
USER: genes 23 Torsion [CG]-CD--CE-[NZ] |==|  0.78145
USER: genes 24 Torsion [CD]-CE--NZ-[HZ2] |==|  0.84354
ROOT
ATOM      1  CA  SER I   3      47.019  29.890   8.693  0.30 32.02 LIG 0.20  C 
ENDROOT
BRANCH 1 2
ATOM      2  N   SER I   3      46.037  30.682   9.427  0.30 32.24 LIG-0.34  N 
ATOM      3 H    SER I   3      46.129  31.537   9.415  0.30 32.24 LIG 0.16  HD
ATOM      4  C   LEU I   2      45.100  29.991  10.038  0.30 32.50 LIG 0.24  C 
ATOM      5 O    LEU I   2      45.075  28.762  10.000  0.30 32.61 LIG-0.27  OA
BRANCH 4 6
ATOM      6  CA  LEU I   2      44.030  30.720  10.790  0.30 32.74 LIG 0.18  C 
BRANCH 6 7
ATOM      7  CB  LEU I   2      44.482  31.100  12.204  0.30 32.79 LIG 0.04  C 
BRANCH 7 8
ATOM      8  CG  LEU I   2      44.481  32.618  12.505  0.30 32.97 LIG-0.02  C 
ATOM      9  CD1 LEU I   2      45.507  33.326  11.637  0.30 33.23 LIG 0.01  C 
ATOM     10  CD2 LEU I   2      43.100  33.222  12.296  0.30 33.13 LIG 0.01  C 
ENDBRANCH 7 8
ENDBRANCH 6 7
BRANCH 6 11
ATOM     11  N   LEU I   2      43.045  29.685  10.664  0.30 32.86 LIG-0.35  N 
ATOM     12  C   PHE I   1      41.808  29.936  10.312  0.30 33.00 LIG 0.25  C 
ATOM     13 O    PHE I   1      41.342  31.073  10.282  0.30 33.06 LIG-0.27  OA
ATOM     14 H    LEU I   2      43.340  28.897  10.838  0.30 32.86 LIG 0.16  HD
BRANCH 12 15
ATOM     15  CA  PHE I   1      40.950  28.732   9.944  0.30 33.09 LIG 0.28  C 
BRANCH 15 16
ATOM     16  CB  PHE I   1      39.679  28.676  10.761  0.30 33.12 LIG 0.08  C 
BRANCH 16 17
ATOM     17  CG  PHE I   1      38.403  29.138  10.095  0.30 33.22 LIG-0.06  A 
ATOM     18  CD1 PHE I   1      37.924  28.637   8.874  0.30 33.33 LIG 0.01  A 
ATOM     19  CE1 PHE I   1      36.712  29.104   8.362  0.30 33.39 LIG 0.00  A 
ATOM     20  CZ  PHE I   1      35.993  30.060   9.050  0.30 33.40 LIG 0.00  A 
ATOM     21  CE2 PHE I   1      36.472  30.580  10.230  0.30 33.33 LIG 0.00  A 
ATOM     22  CD2 PHE I   1      37.662  30.126  10.731  0.30 33.29 LIG 0.01  A 
ENDBRANCH 16 17
ENDBRANCH 15 16
BRANCH 15 23
ATOM     23  N   PHE I   1      41.697  27.488  10.103  0.30 33.12 LIG-0.07  N 
ATOM     24 H2   PHE I   1      42.334  27.599  10.713  0.30 33.12 LIG 0.28  HD
ATOM     25 H1   PHE I   1      42.067  27.263   9.325  0.30 33.12 LIG 0.28  HD
ATOM     26 H3   PHE I   1      41.145  26.841  10.365  0.30 33.12 LIG 0.28  HD
ENDBRANCH 15 23
ENDBRANCH 12 15
ENDBRANCH 6 11
ENDBRANCH 4 6
ENDBRANCH 1 2
BRANCH 1 27
ATOM     27  CB  SER I   3      46.347  29.224   7.489  0.30 32.04 LIG 0.20  C 
BRANCH 27 28
ATOM     28 OG   SER I   3      46.992  29.586   6.283  0.30 32.08 LIG-0.40  OA
ATOM     29 HG   SER I   3      47.022  30.424   6.222  0.30 32.08 LIG 0.21  HD
ENDBRANCH 27 28
ENDBRANCH 1 27
BRANCH 1 30
ATOM     30  C   SER I   3      48.223  30.661   8.212  0.30 31.77 LIG 0.24  C 
ATOM     31  N   THR I   4      48.249  31.975   8.316  0.30 31.46 LIG-0.34  N 
ATOM     32 H    THR I   4      47.668  32.481   8.697  0.30 31.46 LIG 0.16  HD
ATOM     33 O    SER I   3      49.163  30.037   7.733  0.30 31.84 LIG-0.27  OA
BRANCH 31 34
ATOM     34  CA  THR I   4      49.392  32.611   7.715  0.30 31.16 LIG 0.20  C 
BRANCH 34 35
ATOM     35  CB  THR I   4      49.044  33.048   6.299  0.30 31.16 LIG 0.15  C 
ATOM     36  CG2 THR I   4      50.295  33.188   5.450  0.30 31.01 LIG 0.04  C 
BRANCH 35 37
ATOM     37 OG1  THR I   4      48.161  32.086   5.707  0.30 31.22 LIG-0.39  OA
ATOM     38 HG1  THR I   4      48.610  31.523   5.276  0.30 31.22 LIG 0.21  HD
ENDBRANCH 35 37
ENDBRANCH 34 35
BRANCH 34 39
ATOM     39  C   THR I   4      49.946  33.790   8.495  0.30 30.90 LIG 0.24  C 
ATOM     40  N   LYS I   5      51.140  33.611   9.011  0.30 30.59 LIG-0.35  N 
ATOM     41 H    LYS I   5      51.573  32.870   9.046  0.30 30.59 LIG 0.16  HD
ATOM     42 O    THR I   4      49.307  34.833   8.616  0.30 30.97 LIG-0.27  OA
BRANCH 40 43
ATOM     43  CA  LYS I   5      51.783  34.755   9.567  0.30 30.26 LIG 0.16  C 
BRANCH 43 44
ATOM     44  C   LYS I   5      51.115  34.970  10.913  0.30 30.28 LIG 0.22  C 
ATOM     45 O    LYS I   5      50.182  34.263  11.281  0.30 30.24 LIG-0.29  OA
ENDBRANCH 43 44
BRANCH 43 46
ATOM     46  CB  LYS I   5      51.602  36.009   8.740  0.30 30.11 LIG 0.03  C 
BRANCH 46 47
ATOM     47  CG  LYS I   5      52.824  36.905   8.721  0.30 29.43 LIG 0.00  C 
BRANCH 47 48
ATOM     48  CD  LYS I   5      53.979  36.262   9.449  0.30 28.58 LIG 0.03  C 
BRANCH 48 49
ATOM     49  CE  LYS I   5      55.275  36.488   8.686  0.30 28.11 LIG 0.23  C 
BRANCH 49 50
ATOM     50  NZ  LYS I   5      55.418  35.570   7.530  0.30 27.97 LIG-0.08  N 
ATOM     51 HZ1  LYS I   5      56.210  35.698   7.145  0.30 27.97 LIG 0.27  HD
ATOM     52 HZ2  LYS I   5      55.358  34.727   7.811  0.30 27.97 LIG 0.27  HD
ATOM     53 HZ3  LYS I   5      54.772  35.733   6.940  0.30 27.97 LIG 0.27  HD
ENDBRANCH 49 50
ENDBRANCH 48 49
ENDBRANCH 47 48
ENDBRANCH 46 47
ENDBRANCH 43 46
ENDBRANCH 40 43
ENDBRANCH 34 39
ENDBRANCH 31 34
ENDBRANCH 1 30
TORSDOF 23
ENDMDL
