MODEL 1
USER: ADFR SOLUTION from run 61
USER: SCORE 10.061864 LL:  -2.277 LR:  -8.130 RR:   0.000 FEB:  -3.357
USER: RMSD 4.023216
USER: SEED 60
USER: STATUS no improvement in best 4 clusters for 5 generations
USER: GENES 18
USER: genes 0 Translation |==|  0.50517 0.56808 0.56640
USER: genes 1 Rotation |==|  0.66492 0.51758 0.50535 0.97166
USER: genes 2 Torsion [N]-CA--C-[N] |==|  0.18889
USER: genes 3 Torsion [C]-N--CA-[C] |==|  0.78626
USER: genes 4 Torsion [N]-CA--C-[O] |==|  0.00004
USER: genes 5 Torsion [N]-CA--CB-[OG] |==|  0.07900
USER: genes 6 Torsion [CA]-CB--OG-[HG] |==|  0.25087
USER: genes 7 Torsion [C]-CA--CB-[CG] |==|  0.83802
USER: genes 8 Torsion [CA]-CB--CG-[CD] |==|  0.58532
USER: genes 9 Torsion [CB]-CG--CD-[NE] |==|  0.87676
USER: genes 10 Torsion [CG]-CD--NE-[CZ] |==|  0.72990
USER: genes 11 Torsion [C]-CA--N-[C] |==|  0.75782
USER: genes 12 Torsion [N]-C--CA-[N] |==|  0.41062
USER: genes 13 Torsion [C]-CA--N-[C] |==|  0.71480
USER: genes 14 Torsion [N]-C--CA-[N] |==|  0.87680
USER: genes 15 Torsion [C]-CA--N-[H1] |==|  0.42889
USER: genes 16 Torsion [C]-CA--CB-[CG2] |==|  0.58243
USER: genes 17 Torsion [CA]-CB--CG1-[CD1] |==|  0.46087
ROOT
ATOM      1  CA  ARG B   3       3.925  20.062  -5.378  0.50 56.69 LIG 0.18  C 
ENDROOT
BRANCH 1 2
ATOM      2  C   ARG B   3       4.816  20.527  -4.253  0.50 56.65 LIG 0.24  C 
ATOM      3 O    ARG B   3       5.384  19.747  -3.488  0.50 56.65 LIG-0.27  OA
ATOM      4  N   SER B   4       4.961  21.845  -4.232  0.50 56.58 LIG-0.34  N 
ATOM      5 H    SER B   4       4.756  22.349  -4.898  0.50 56.58 LIG 0.16  HD
BRANCH 4 6
ATOM      6  CA  SER B   4       5.478  22.574  -3.096  0.50 56.54 LIG 0.19  C 
BRANCH 6 7
ATOM      7  C   SER B   4       4.357  22.654  -2.071  0.50 56.54 LIG 0.22  C 
ATOM      8 O    SER B   4       3.255  22.147  -2.293  0.50 56.51 LIG-0.29  OA
ENDBRANCH 6 7
BRANCH 6 9
ATOM      9  CB  SER B   4       5.932  23.972  -3.517  0.50 56.54 LIG 0.20  C 
BRANCH 9 10
ATOM     10 OG   SER B   4       5.195  24.438  -4.634  0.50 56.48 LIG-0.40  OA
ATOM     11 HG   SER B   4       4.516  24.855  -4.368  0.50 56.48 LIG 0.21  HD
ENDBRANCH 9 10
ENDBRANCH 6 9
ENDBRANCH 4 6
ENDBRANCH 1 2
BRANCH 1 12
ATOM     12  CB  ARG B   3       3.630  18.584  -5.127  0.50 56.69 LIG 0.04  C 
BRANCH 12 13
ATOM     13  CG  ARG B   3       4.826  17.655  -5.042  0.50 56.67 LIG 0.02  C 
BRANCH 13 14
ATOM     14  CD  ARG B   3       4.521  16.240  -5.528  0.50 56.64 LIG 0.14  C 
BRANCH 14 15
ATOM     15  NE  ARG B   3       3.240  15.738  -5.017  0.50 56.60 LIG-0.23  N 
ATOM     16  CZ  ARG B   3       3.088  14.952  -3.953  0.50 56.66 LIG 0.67  C 
ATOM     17  NH2 ARG B   3       1.867  14.567  -3.596  0.50 56.73 LIG-0.23  N 
ATOM     18  NH1 ARG B   3       4.135  14.550  -3.239  0.50 56.69 LIG-0.23  N 
ATOM     19 22HH ARG B   3       1.759  14.059  -2.910  0.50 56.73 LIG 0.17  HD
ATOM     20 21HH ARG B   3       1.184  14.825  -4.051  0.50 56.73 LIG 0.17  HD
ATOM     21 12HH ARG B   3       4.020  14.042  -2.555  0.50 56.69 LIG 0.17  HD
ATOM     22 11HH ARG B   3       4.928  14.798  -3.463  0.50 56.69 LIG 0.17  HD
ATOM     23 HE   ARG B   3       2.528  15.972  -5.440  0.50 56.60 LIG 0.18  HD
ENDBRANCH 14 15
ENDBRANCH 13 14
ENDBRANCH 12 13
ENDBRANCH 1 12
BRANCH 1 24
ATOM     24  N   ARG B   3       4.418  20.218  -6.740  0.50 56.75 LIG-0.35  N 
ATOM     25  C   ILE B   2       4.217  21.352  -7.400  0.50 56.81 LIG 0.24  C 
ATOM     26 O    ILE B   2       3.852  22.376  -6.839  0.50 56.81 LIG-0.27  OA
ATOM     27 H    ARG B   3       4.832  19.535  -7.058  0.50 56.75 LIG 0.16  HD
BRANCH 25 28
ATOM     28  CA  ILE B   2       4.458  21.328  -8.908  0.50 56.86 LIG 0.18  C 
BRANCH 28 29
ATOM     29  N   ILE B   2       3.537  22.263  -9.545  0.50 56.91 LIG-0.35  N 
ATOM     30 H    ILE B   2       3.767  23.088  -9.470  0.50 56.91 LIG 0.16  HD
ATOM     31  C   ALA B   1       2.442  21.861 -10.180  0.50 56.95 LIG 0.25  C 
ATOM     32 O    ALA B   1       2.111  20.678 -10.268  0.50 56.96 LIG-0.27  OA
BRANCH 31 33
ATOM     33  CA  ALA B   1       1.588  22.961 -10.806  0.50 56.96 LIG 0.27  C 
ATOM     34  CB  ALA B   1       2.213  23.441 -12.107  0.50 56.98 LIG 0.05  C 
BRANCH 33 35
ATOM     35  N   ALA B   1       1.427  24.103  -9.862  0.50 56.97 LIG-0.07  N 
ATOM     36 H1   ALA B   1       1.272  24.849 -10.323  0.50 56.97 LIG 0.28  HD
ATOM     37 H3   ALA B   1       2.171  24.199  -9.384  0.50 56.97 LIG 0.28  HD
ATOM     38 H2   ALA B   1       0.742  23.943  -9.316  0.50 56.97 LIG 0.28  HD
ENDBRANCH 33 35
ENDBRANCH 31 33
ENDBRANCH 28 29
BRANCH 28 39
ATOM     39  CB  ILE B   2       5.914  21.718  -9.254  0.50 56.87 LIG 0.01  C 
ATOM     40  CG2 ILE B   2       6.011  22.396 -10.628  1.00 56.86 LIG 0.01  C 
BRANCH 39 41
ATOM     41  CG1 ILE B   2       6.516  22.592  -8.139  1.00 56.91 LIG 0.00  C 
ATOM     42  CD1 ILE B   2       8.035  22.764  -8.192  0.50 56.92 LIG 0.01  C 
ENDBRANCH 39 41
ENDBRANCH 28 39
ENDBRANCH 25 28
ENDBRANCH 1 24
TORSDOF 16
ENDMDL
MODEL 2
USER: ADFR SOLUTION from run 31
USER: SCORE 9.286056 LL:  -2.249 LR:  -7.750 RR:   0.000 FEB:  -2.977
USER: RMSD 2.562224
USER: SEED 30
USER: STATUS no improvement in best 5 clusters for 5 generations
USER: GENES 18
USER: genes 0 Translation |==|  0.50347 0.56066 0.57412
USER: genes 1 Rotation |==|  0.62608 0.50630 0.48939 0.98369
USER: genes 2 Torsion [N]-CA--C-[N] |==|  0.19436
USER: genes 3 Torsion [C]-N--CA-[C] |==|  0.80392
USER: genes 4 Torsion [N]-CA--C-[O] |==|  0.00435
USER: genes 5 Torsion [N]-CA--CB-[OG] |==|  0.11172
USER: genes 6 Torsion [CA]-CB--OG-[HG] |==|  0.26800
USER: genes 7 Torsion [C]-CA--CB-[CG] |==|  0.78352
USER: genes 8 Torsion [CA]-CB--CG-[CD] |==|  0.60970
USER: genes 9 Torsion [CB]-CG--CD-[NE] |==|  0.85071
USER: genes 10 Torsion [CG]-CD--NE-[CZ] |==|  0.75607
USER: genes 11 Torsion [C]-CA--N-[C] |==|  0.63859
USER: genes 12 Torsion [N]-C--CA-[N] |==|  0.25352
USER: genes 13 Torsion [C]-CA--N-[C] |==|  0.75956
USER: genes 14 Torsion [N]-C--CA-[N] |==|  0.11607
USER: genes 15 Torsion [C]-CA--N-[H1] |==|  0.39579
USER: genes 16 Torsion [C]-CA--CB-[CG2] |==|  0.81286
USER: genes 17 Torsion [CA]-CB--CG1-[CD1] |==|  0.71436
ROOT
ATOM      1  CA  ARG B   3       3.874  19.840  -5.147  0.50 56.69 LIG 0.18  C 
ENDROOT
BRANCH 1 2
ATOM      2  C   ARG B   3       4.775  20.422  -4.085  0.50 56.65 LIG 0.24  C 
ATOM      3 O    ARG B   3       5.299  19.735  -3.208  0.50 56.65 LIG-0.27  OA
ATOM      4  N   SER B   4       4.980  21.721  -4.251  0.50 56.58 LIG-0.34  N 
ATOM      5 H    SER B   4       4.805  22.133  -4.985  0.50 56.58 LIG 0.16  HD
BRANCH 4 6
ATOM      6  CA  SER B   4       5.519  22.582  -3.223  0.50 56.54 LIG 0.19  C 
BRANCH 6 7
ATOM      7  C   SER B   4       4.444  22.729  -2.157  0.50 56.54 LIG 0.22  C 
ATOM      8 O    SER B   4       3.365  22.140  -2.256  0.50 56.51 LIG-0.29  OA
ENDBRANCH 6 7
BRANCH 6 9
ATOM      9  CB  SER B   4       5.896  23.944  -3.807  0.50 56.54 LIG 0.20  C 
BRANCH 9 10
ATOM     10 OG   SER B   4       4.931  24.387  -4.745  0.50 56.48 LIG-0.40  OA
ATOM     11 HG   SER B   4       4.390  24.907  -4.367  0.50 56.48 LIG 0.21  HD
ENDBRANCH 9 10
ENDBRANCH 6 9
ENDBRANCH 4 6
ENDBRANCH 1 2
BRANCH 1 12
ATOM     12  CB  ARG B   3       3.469  18.446  -4.668  0.50 56.69 LIG 0.04  C 
BRANCH 12 13
ATOM     13  CG  ARG B   3       4.498  17.343  -4.831  0.50 56.67 LIG 0.02  C 
BRANCH 13 14
ATOM     14  CD  ARG B   3       3.885  16.014  -5.268  0.50 56.64 LIG 0.14  C 
BRANCH 14 15
ATOM     15  NE  ARG B   3       2.797  15.583  -4.382  0.50 56.60 LIG-0.23  N 
ATOM     16  CZ  ARG B   3       2.944  14.858  -3.275  0.50 56.66 LIG 0.67  C 
ATOM     17  NH2 ARG B   3       1.871  14.533  -2.562  0.50 56.73 LIG-0.23  N 
ATOM     18  NH1 ARG B   3       4.145  14.458  -2.869  0.50 56.69 LIG-0.23  N 
ATOM     19 22HH ARG B   3       1.956  14.065  -1.845  0.50 56.73 LIG 0.17  HD
ATOM     20 21HH ARG B   3       1.091  14.791  -2.816  0.50 56.73 LIG 0.17  HD
ATOM     21 12HH ARG B   3       4.223  13.991  -2.151  0.50 56.69 LIG 0.17  HD
ATOM     22 11HH ARG B   3       4.844  14.667  -3.324  0.50 56.69 LIG 0.17  HD
ATOM     23 HE   ARG B   3       1.998  15.818  -4.597  0.50 56.60 LIG 0.18  HD
ENDBRANCH 14 15
ENDBRANCH 13 14
ENDBRANCH 12 13
ENDBRANCH 1 12
BRANCH 1 24
ATOM     24  N   ARG B   3       4.403  19.736  -6.500  0.50 56.75 LIG-0.35  N 
ATOM     25  C   ILE B   2       3.704  20.195  -7.530  0.50 56.81 LIG 0.24  C 
ATOM     26 O    ILE B   2       2.738  20.931  -7.384  0.50 56.81 LIG-0.27  OA
ATOM     27 H    ARG B   3       5.176  19.364  -6.561  0.50 56.75 LIG 0.16  HD
BRANCH 25 28
ATOM     28  CA  ILE B   2       4.154  19.760  -8.923  0.50 56.86 LIG 0.18  C 
BRANCH 28 29
ATOM     29  N   ILE B   2       3.438  18.544  -9.289  0.50 56.91 LIG-0.35  N 
ATOM     30 H    ILE B   2       2.717  18.682  -9.737  0.50 56.91 LIG 0.16  HD
ATOM     31  C   ALA B   1       3.871  17.334  -8.952  0.50 56.95 LIG 0.25  C 
ATOM     32 O    ALA B   1       4.896  17.146  -8.295  0.50 56.96 LIG-0.27  OA
BRANCH 31 33
ATOM     33  CA  ALA B   1       3.016  16.160  -9.422  0.50 56.96 LIG 0.27  C 
ATOM     34  CB  ALA B   1       3.801  14.861  -9.326  0.50 56.98 LIG 0.05  C 
BRANCH 33 35
ATOM     35  N   ALA B   1       2.551  16.376 -10.821  0.50 56.97 LIG-0.07  N 
ATOM     36 H1   ALA B   1       2.556  15.600 -11.258  0.50 56.97 LIG 0.28  HD
ATOM     37 H3   ALA B   1       3.094  16.950 -11.229  0.50 56.97 LIG 0.28  HD
ATOM     38 H2   ALA B   1       1.723  16.705 -10.811  0.50 56.97 LIG 0.28  HD
ENDBRANCH 33 35
ENDBRANCH 31 33
ENDBRANCH 28 29
BRANCH 28 39
ATOM     39  CB  ILE B   2       3.879  20.861  -9.975  0.50 56.87 LIG 0.01  C 
ATOM     40  CG2 ILE B   2       2.375  21.073 -10.195  1.00 56.86 LIG 0.01  C 
BRANCH 39 41
ATOM     41  CG1 ILE B   2       4.592  22.168  -9.585  1.00 56.91 LIG 0.00  C 
ATOM     42  CD1 ILE B   2       3.693  23.247  -8.979  0.50 56.92 LIG 0.01  C 
ENDBRANCH 39 41
ENDBRANCH 28 39
ENDBRANCH 25 28
ENDBRANCH 1 24
TORSDOF 16
ENDMDL
MODEL 3
USER: ADFR SOLUTION from run 124
USER: SCORE 9.729259 LL:  -2.328 LR:  -7.647 RR:   0.000 FEB:  -2.874
USER: RMSD 2.481072
USER: SEED 123
USER: STATUS searching
USER: GENES 18
USER: genes 0 Translation |==|  0.48638 0.57762 0.55911
USER: genes 1 Rotation |==|  0.57661 0.48791 0.61010 0.98152
USER: genes 2 Torsion [N]-CA--C-[N] |==|  0.00029
USER: genes 3 Torsion [C]-N--CA-[C] |==|  0.48242
USER: genes 4 Torsion [N]-CA--C-[O] |==|  0.06092
USER: genes 5 Torsion [N]-CA--CB-[OG] |==|  0.55156
USER: genes 6 Torsion [CA]-CB--OG-[HG] |==|  0.20271
USER: genes 7 Torsion [C]-CA--CB-[CG] |==|  0.75553
USER: genes 8 Torsion [CA]-CB--CG-[CD] |==|  0.64402
USER: genes 9 Torsion [CB]-CG--CD-[NE] |==|  0.71805
USER: genes 10 Torsion [CG]-CD--NE-[CZ] |==|  0.30976
USER: genes 11 Torsion [C]-CA--N-[C] |==|  0.70832
USER: genes 12 Torsion [N]-C--CA-[N] |==|  0.29463
USER: genes 13 Torsion [C]-CA--N-[C] |==|  0.76399
USER: genes 14 Torsion [N]-C--CA-[N] |==|  0.20114
USER: genes 15 Torsion [C]-CA--N-[H1] |==|  0.22624
USER: genes 16 Torsion [C]-CA--CB-[CG2] |==|  0.11246
USER: genes 17 Torsion [CA]-CB--CG1-[CD1] |==|  0.80143
ROOT
ATOM      1  CA  ARG B   3       3.361  20.348  -5.597  0.50 56.69 LIG 0.18  C 
ENDROOT
BRANCH 1 2
ATOM      2  C   ARG B   3       3.674  21.413  -4.575  0.50 56.65 LIG 0.24  C 
ATOM      3 O    ARG B   3       3.086  21.493  -3.496  0.50 56.65 LIG-0.27  OA
ATOM      4  N   SER B   4       4.682  22.191  -4.945  0.50 56.58 LIG-0.34  N 
ATOM      5 H    SER B   4       5.226  21.983  -5.577  0.50 56.58 LIG 0.16  HD
BRANCH 4 6
ATOM      6  CA  SER B   4       4.974  23.466  -4.330  0.50 56.54 LIG 0.19  C 
BRANCH 6 7
ATOM      7  C   SER B   4       6.284  23.958  -4.927  0.50 56.54 LIG 0.22  C 
ATOM      8 O    SER B   4       6.683  23.541  -6.017  0.50 56.51 LIG-0.29  OA
ENDBRANCH 6 7
BRANCH 6 9
ATOM      9  CB  SER B   4       5.089  23.316  -2.813  0.50 56.54 LIG 0.20  C 
BRANCH 9 10
ATOM     10 OG   SER B   4       4.952  24.567  -2.161  0.50 56.48 LIG-0.40  OA
ATOM     11 HG   SER B   4       4.149  24.812  -2.190  0.50 56.48 LIG 0.21  HD
ENDBRANCH 9 10
ENDBRANCH 6 9
ENDBRANCH 4 6
ENDBRANCH 1 2
BRANCH 1 12
ATOM     12  CB  ARG B   3       3.480  19.002  -4.884  0.50 56.69 LIG 0.04  C 
BRANCH 12 13
ATOM     13  CG  ARG B   3       4.854  18.361  -4.861  0.50 56.67 LIG 0.02  C 
BRANCH 13 14
ATOM     14  CD  ARG B   3       4.848  16.915  -5.352  0.50 56.64 LIG 0.14  C 
BRANCH 14 15
ATOM     15  NE  ARG B   3       4.896  15.950  -4.248  0.50 56.60 LIG-0.23  N 
ATOM     16  CZ  ARG B   3       3.906  15.134  -3.891  0.50 56.66 LIG 0.67  C 
ATOM     17  NH2 ARG B   3       4.080  14.306  -2.866  0.50 56.73 LIG-0.23  N 
ATOM     18  NH1 ARG B   3       2.748  15.131  -4.546  0.50 56.69 LIG-0.23  N 
ATOM     19 22HH ARG B   3       3.445  13.776  -2.629  0.50 56.73 LIG 0.17  HD
ATOM     20 21HH ARG B   3       4.827  14.301  -2.440  0.50 56.73 LIG 0.17  HD
ATOM     21 12HH ARG B   3       2.118  14.598  -4.303  0.50 56.69 LIG 0.17  HD
ATOM     22 11HH ARG B   3       2.630  15.662  -5.212  0.50 56.69 LIG 0.17  HD
ATOM     23 HE   ARG B   3       5.625  15.908  -3.792  0.50 56.60 LIG 0.18  HD
ENDBRANCH 14 15
ENDBRANCH 13 14
ENDBRANCH 12 13
ENDBRANCH 1 12
BRANCH 1 24
ATOM     24  N   ARG B   3       4.173  20.312  -6.806  0.50 56.75 LIG-0.35  N 
ATOM     25  C   ILE B   2       3.680  20.750  -7.957  0.50 56.81 LIG 0.24  C 
ATOM     26 O    ILE B   2       2.657  21.417  -8.016  0.50 56.81 LIG-0.27  OA
ATOM     27 H    ARG B   3       4.965  19.994  -6.703  0.50 56.75 LIG 0.16  HD
BRANCH 25 28
ATOM     28  CA  ILE B   2       4.447  20.379  -9.225  0.50 56.86 LIG 0.18  C 
BRANCH 28 29
ATOM     29  N   ILE B   2       3.704  19.345  -9.938  0.50 56.91 LIG-0.35  N 
ATOM     30 H    ILE B   2       3.186  19.647 -10.553  0.50 56.91 LIG 0.16  HD
ATOM     31  C   ALA B   1       3.827  18.055  -9.649  0.50 56.95 LIG 0.25  C 
ATOM     32 O    ALA B   1       4.559  17.632  -8.754  0.50 56.96 LIG-0.27  OA
BRANCH 31 33
ATOM     33  CA  ALA B   1       2.992  17.096 -10.495  0.50 56.96 LIG 0.27  C 
ATOM     34  CB  ALA B   1       2.944  15.722  -9.846  0.50 56.98 LIG 0.05  C 
BRANCH 33 35
ATOM     35  N   ALA B   1       3.546  16.993 -11.874  0.50 56.97 LIG-0.07  N 
ATOM     36 H1   ALA B   1       4.228  16.421 -11.877  0.50 56.97 LIG 0.28  HD
ATOM     37 H3   ALA B   1       3.829  17.793 -12.141  0.50 56.97 LIG 0.28  HD
ATOM     38 H2   ALA B   1       2.912  16.702 -12.428  0.50 56.97 LIG 0.28  HD
ENDBRANCH 33 35
ENDBRANCH 31 33
ENDBRANCH 28 29
BRANCH 28 39
ATOM     39  CB  ILE B   2       4.641  21.606 -10.147  0.50 56.87 LIG 0.01  C 
ATOM     40  CG2 ILE B   2       4.980  22.871  -9.347  1.00 56.86 LIG 0.01  C 
BRANCH 39 41
ATOM     41  CG1 ILE B   2       5.701  21.307 -11.224  1.00 56.91 LIG 0.00  C 
ATOM     42  CD1 ILE B   2       7.142  21.227 -10.718  0.50 56.92 LIG 0.01  C 
ENDBRANCH 39 41
ENDBRANCH 28 39
ENDBRANCH 25 28
ENDBRANCH 1 24
TORSDOF 16
ENDMDL
MODEL 4
USER: ADFR SOLUTION from run 119
USER: SCORE 9.010738 LL:  -2.215 LR:  -7.437 RR:   0.000 FEB:  -2.664
USER: RMSD 1.700069
USER: SEED 118
USER: STATUS no improvement in best 5 clusters for 5 generations
USER: GENES 18
USER: genes 0 Translation |==|  0.50599 0.60297 0.53335
USER: genes 1 Rotation |==|  0.51675 0.49966 0.47419 0.99905
USER: genes 2 Torsion [N]-CA--C-[N] |==|  0.53749
USER: genes 3 Torsion [C]-N--CA-[C] |==|  0.54342
USER: genes 4 Torsion [N]-CA--C-[O] |==|  0.04410
USER: genes 5 Torsion [N]-CA--CB-[OG] |==|  0.33960
USER: genes 6 Torsion [CA]-CB--OG-[HG] |==|  0.76416
USER: genes 7 Torsion [C]-CA--CB-[CG] |==|  0.82080
USER: genes 8 Torsion [CA]-CB--CG-[CD] |==|  0.72149
USER: genes 9 Torsion [CB]-CG--CD-[NE] |==|  0.61273
USER: genes 10 Torsion [CG]-CD--NE-[CZ] |==|  0.32776
USER: genes 11 Torsion [C]-CA--N-[C] |==|  0.56667
USER: genes 12 Torsion [N]-C--CA-[N] |==|  0.34290
USER: genes 13 Torsion [C]-CA--N-[C] |==|  0.70045
USER: genes 14 Torsion [N]-C--CA-[N] |==|  0.06033
USER: genes 15 Torsion [C]-CA--N-[H1] |==|  0.42816
USER: genes 16 Torsion [C]-CA--CB-[CG2] |==|  0.11784
USER: genes 17 Torsion [CA]-CB--CG1-[CD1] |==|  0.92032
ROOT
ATOM      1  CA  ARG B   3       3.950  21.109  -6.369  0.50 56.69 LIG 0.18  C 
ENDROOT
BRANCH 1 2
ATOM      2  C   ARG B   3       4.894  22.038  -5.647  0.50 56.65 LIG 0.24  C 
ATOM      3 O    ARG B   3       5.938  22.450  -6.152  0.50 56.65 LIG-0.27  OA
ATOM      4  N   SER B   4       4.438  22.400  -4.456  0.50 56.58 LIG-0.34  N 
ATOM      5 H    SER B   4       3.618  22.297  -4.218  0.50 56.58 LIG 0.16  HD
BRANCH 4 6
ATOM      6  CA  SER B   4       5.262  23.002  -3.434  0.50 56.54 LIG 0.19  C 
BRANCH 6 7
ATOM      7  C   SER B   4       4.493  22.904  -2.125  0.50 56.54 LIG 0.22  C 
ATOM      8 O    SER B   4       3.530  22.142  -2.010  0.50 56.51 LIG-0.29  OA
ENDBRANCH 6 7
BRANCH 6 9
ATOM      9  CB  SER B   4       5.565  24.461  -3.779  0.50 56.54 LIG 0.20  C 
BRANCH 9 10
ATOM     10 OG   SER B   4       5.127  25.334  -2.752  0.50 56.48 LIG-0.40  OA
ATOM     11 HG   SER B   4       4.315  25.514  -2.865  0.50 56.48 LIG 0.21  HD
ENDBRANCH 9 10
ENDBRANCH 6 9
ENDBRANCH 4 6
ENDBRANCH 1 2
BRANCH 1 12
ATOM     12  CB  ARG B   3       3.470  20.081  -5.345  0.50 56.69 LIG 0.04  C 
BRANCH 12 13
ATOM     13  CG  ARG B   3       4.521  19.151  -4.770  0.50 56.67 LIG 0.02  C 
BRANCH 13 14
ATOM     14  CD  ARG B   3       4.519  17.770  -5.421  0.50 56.64 LIG 0.14  C 
BRANCH 14 15
ATOM     15  NE  ARG B   3       4.714  16.692  -4.445  0.50 56.60 LIG-0.23  N 
ATOM     16  CZ  ARG B   3       3.841  15.722  -4.180  0.50 56.66 LIG 0.67  C 
ATOM     17  NH2 ARG B   3       4.143  14.804  -3.268  0.50 56.73 LIG-0.23  N 
ATOM     18  NH1 ARG B   3       2.675  15.654  -4.816  0.50 56.69 LIG-0.23  N 
ATOM     19 22HH ARG B   3       3.584  14.174  -3.090  0.50 56.73 LIG 0.17  HD
ATOM     20 21HH ARG B   3       4.896  14.840  -2.855  0.50 56.73 LIG 0.17  HD
ATOM     21 12HH ARG B   3       2.122  15.022  -4.633  0.50 56.69 LIG 0.17  HD
ATOM     22 11HH ARG B   3       2.474  16.243  -5.409  0.50 56.69 LIG 0.17  HD
ATOM     23 HE   ARG B   3       5.455  16.686  -4.008  0.50 56.60 LIG 0.18  HD
ENDBRANCH 14 15
ENDBRANCH 13 14
ENDBRANCH 12 13
ENDBRANCH 1 12
BRANCH 1 24
ATOM     24  N   ARG B   3       4.456  20.405  -7.540  0.50 56.75 LIG-0.35  N 
ATOM     25  C   ILE B   2       3.621  19.971  -8.475  0.50 56.81 LIG 0.24  C 
ATOM     26 O    ILE B   2       2.459  20.347  -8.534  0.50 56.81 LIG-0.27  OA
ATOM     27 H    ARG B   3       5.310  20.304  -7.562  0.50 56.75 LIG 0.16  HD
BRANCH 25 28
ATOM     28  CA  ILE B   2       4.173  18.967  -9.485  0.50 56.86 LIG 0.18  C 
BRANCH 28 29
ATOM     29  N   ILE B   2       3.344  17.766  -9.453  0.50 56.91 LIG-0.35  N 
ATOM     30 H    ILE B   2       2.566  17.868  -9.804  0.50 56.91 LIG 0.16  HD
ATOM     31  C   ALA B   1       3.768  16.624  -8.924  0.50 56.95 LIG 0.25  C 
ATOM     32 O    ALA B   1       4.879  16.493  -8.408  0.50 56.96 LIG-0.27  OA
BRANCH 31 33
ATOM     33  CA  ALA B   1       2.788  15.455  -8.980  0.50 56.96 LIG 0.27  C 
ATOM     34  CB  ALA B   1       3.533  14.150  -9.214  0.50 56.98 LIG 0.05  C 
BRANCH 33 35
ATOM     35  N   ALA B   1       1.778  15.667 -10.054  0.50 56.97 LIG-0.07  N 
ATOM     36 H1   ALA B   1       1.469  14.880 -10.332  0.50 56.97 LIG 0.28  HD
ATOM     37 H3   ALA B   1       2.156  16.095 -10.737  0.50 56.97 LIG 0.28  HD
ATOM     38 H2   ALA B   1       1.104  16.154  -9.736  0.50 56.97 LIG 0.28  HD
ENDBRANCH 33 35
ENDBRANCH 31 33
ENDBRANCH 28 29
BRANCH 28 39
ATOM     39  CB  ILE B   2       4.181  19.553 -10.917  0.50 56.87 LIG 0.01  C 
ATOM     40  CG2 ILE B   2       4.666  21.009 -10.933  1.00 56.86 LIG 0.01  C 
BRANCH 39 41
ATOM     41  CG1 ILE B   2       5.012  18.661 -11.858  1.00 56.91 LIG 0.00  C 
ATOM     42  CD1 ILE B   2       6.144  17.882 -11.188  0.50 56.92 LIG 0.01  C 
ENDBRANCH 39 41
ENDBRANCH 28 39
ENDBRANCH 25 28
ENDBRANCH 1 24
TORSDOF 16
ENDMDL
MODEL 5
USER: ADFR SOLUTION from run 112
USER: SCORE 8.978994 LL:  -2.248 LR:  -7.238 RR:   0.000 FEB:  -2.465
USER: RMSD 2.818817
USER: SEED 111
USER: STATUS no improvement in best 4 clusters for 5 generations
USER: GENES 18
USER: genes 0 Translation |==|  0.50938 0.61246 0.53394
USER: genes 1 Rotation |==|  0.52801 0.49063 0.45508 0.99710
USER: genes 2 Torsion [N]-CA--C-[N] |==|  0.50856
USER: genes 3 Torsion [C]-N--CA-[C] |==|  0.60082
USER: genes 4 Torsion [N]-CA--C-[O] |==|  0.03410
USER: genes 5 Torsion [N]-CA--CB-[OG] |==|  0.33704
USER: genes 6 Torsion [CA]-CB--OG-[HG] |==|  0.71717
USER: genes 7 Torsion [C]-CA--CB-[CG] |==|  0.86422
USER: genes 8 Torsion [CA]-CB--CG-[CD] |==|  0.73570
USER: genes 9 Torsion [CB]-CG--CD-[NE] |==|  0.79285
USER: genes 10 Torsion [CG]-CD--NE-[CZ] |==|  0.67563
USER: genes 11 Torsion [C]-CA--N-[C] |==|  0.73152
USER: genes 12 Torsion [N]-C--CA-[N] |==|  0.33130
USER: genes 13 Torsion [C]-CA--N-[C] |==|  0.69540
USER: genes 14 Torsion [N]-C--CA-[N] |==|  0.52191
USER: genes 15 Torsion [C]-CA--N-[H1] |==|  0.31974
USER: genes 16 Torsion [C]-CA--CB-[CG2] |==|  0.72659
USER: genes 17 Torsion [CA]-CB--CG1-[CD1] |==|  0.67723
ROOT
ATOM      1  CA  ARG B   3       4.051  21.394  -6.352  0.50 56.69 LIG 0.18  C 
ENDROOT
BRANCH 1 2
ATOM      2  C   ARG B   3       5.037  22.214  -5.557  0.50 56.65 LIG 0.24  C 
ATOM      3 O    ARG B   3       6.195  22.407  -5.928  0.50 56.65 LIG-0.27  OA
ATOM      4  N   SER B   4       4.494  22.745  -4.470  0.50 56.58 LIG-0.34  N 
ATOM      5 H    SER B   4       3.645  22.797  -4.348  0.50 56.58 LIG 0.16  HD
BRANCH 4 6
ATOM      6  CA  SER B   4       5.266  23.290  -3.377  0.50 56.54 LIG 0.19  C 
BRANCH 6 7
ATOM      7  C   SER B   4       4.520  22.955  -2.094  0.50 56.54 LIG 0.22  C 
ATOM      8 O    SER B   4       3.590  22.145  -2.092  0.50 56.51 LIG-0.29  OA
ENDBRANCH 6 7
BRANCH 6 9
ATOM      9  CB  SER B   4       5.427  24.802  -3.534  0.50 56.54 LIG 0.20  C 
BRANCH 9 10
ATOM     10 OG   SER B   4       4.898  25.495  -2.417  0.50 56.48 LIG-0.40  OA
ATOM     11 HG   SER B   4       4.145  25.810  -2.613  0.50 56.48 LIG 0.21  HD
ENDBRANCH 9 10
ENDBRANCH 6 9
ENDBRANCH 4 6
ENDBRANCH 1 2
BRANCH 1 12
ATOM     12  CB  ARG B   3       3.456  20.365  -5.391  0.50 56.69 LIG 0.04  C 
BRANCH 12 13
ATOM     13  CG  ARG B   3       4.437  19.574  -4.546  0.50 56.67 LIG 0.02  C 
BRANCH 13 14
ATOM     14  CD  ARG B   3       4.802  18.224  -5.160  0.50 56.64 LIG 0.14  C 
BRANCH 14 15
ATOM     15  NE  ARG B   3       3.720  17.240  -5.029  0.50 56.60 LIG-0.23  N 
ATOM     16  CZ  ARG B   3       3.790  16.103  -4.340  0.50 56.66 LIG 0.67  C 
ATOM     17  NH2 ARG B   3       2.733  15.297  -4.304  0.50 56.73 LIG-0.23  N 
ATOM     18  NH1 ARG B   3       4.895  15.762  -3.685  0.50 56.69 LIG-0.23  N 
ATOM     19 22HH ARG B   3       2.769  14.560  -3.862  0.50 56.73 LIG 0.17  HD
ATOM     20 21HH ARG B   3       2.014  15.512  -4.724  0.50 56.73 LIG 0.17  HD
ATOM     21 12HH ARG B   3       4.924  15.024  -3.245  0.50 56.69 LIG 0.17  HD
ATOM     22 11HH ARG B   3       5.581  16.280  -3.701  0.50 56.69 LIG 0.17  HD
ATOM     23 HE   ARG B   3       2.979  17.413  -5.431  0.50 56.60 LIG 0.18  HD
ENDBRANCH 14 15
ENDBRANCH 13 14
ENDBRANCH 12 13
ENDBRANCH 1 12
BRANCH 1 24
ATOM     24  N   ARG B   3       4.546  20.702  -7.534  0.50 56.75 LIG-0.35  N 
ATOM     25  C   ILE B   2       4.406  21.245  -8.737  0.50 56.81 LIG 0.24  C 
ATOM     26 O    ILE B   2       4.103  22.420  -8.888  0.50 56.81 LIG-0.27  OA
ATOM     27 H    ARG B   3       4.919  19.942  -7.382  0.50 56.75 LIG 0.16  HD
BRANCH 25 28
ATOM     28  CA  ILE B   2       4.638  20.334  -9.941  0.50 56.86 LIG 0.18  C 
BRANCH 28 29
ATOM     29  N   ILE B   2       3.410  20.273 -10.725  0.50 56.91 LIG-0.35  N 
ATOM     30 H    ILE B   2       3.221  21.002 -11.139  0.50 56.91 LIG 0.16  HD
ATOM     31  C   ALA B   1       2.658  19.179 -10.785  0.50 56.95 LIG 0.25  C 
ATOM     32 O    ALA B   1       2.928  18.143 -10.176  0.50 56.96 LIG-0.27  OA
BRANCH 31 33
ATOM     33  CA  ALA B   1       1.411  19.270 -11.661  0.50 56.96 LIG 0.27  C 
ATOM     34  CB  ALA B   1       0.612  20.517 -11.318  0.50 56.98 LIG 0.05  C 
BRANCH 33 35
ATOM     35  N   ALA B   1       0.562  18.056 -11.495  0.50 56.97 LIG-0.07  N 
ATOM     36 H1   ALA B   1      -0.215  18.286 -11.127  0.50 56.97 LIG 0.28  HD
ATOM     37 H3   ALA B   1       0.979  17.473 -10.968  0.50 56.97 LIG 0.28  HD
ATOM     38 H2   ALA B   1       0.416  17.685 -12.291  0.50 56.97 LIG 0.28  HD
ENDBRANCH 33 35
ENDBRANCH 31 33
ENDBRANCH 28 29
BRANCH 28 39
ATOM     39  CB  ILE B   2       5.794  20.853 -10.828  0.50 56.87 LIG 0.01  C 
ATOM     40  CG2 ILE B   2       5.274  21.644 -12.036  1.00 56.86 LIG 0.01  C 
BRANCH 39 41
ATOM     41  CG1 ILE B   2       6.788  21.676  -9.988  1.00 56.91 LIG 0.00  C 
ATOM     42  CD1 ILE B   2       6.901  23.153 -10.372  0.50 56.92 LIG 0.01  C 
ENDBRANCH 39 41
ENDBRANCH 28 39
ENDBRANCH 25 28
ENDBRANCH 1 24
TORSDOF 16
ENDMDL
MODEL 6
USER: ADFR SOLUTION from run 69
USER: SCORE 8.667870 LL:  -2.302 LR:  -7.142 RR:   0.000 FEB:  -2.369
USER: RMSD 1.777280
USER: SEED 68
USER: STATUS no improvement in best 6 clusters for 5 generations
USER: GENES 18
USER: genes 0 Translation |==|  0.50079 0.52957 0.53030
USER: genes 1 Rotation |==|  0.41017 0.47718 0.51897 0.99097
USER: genes 2 Torsion [N]-CA--C-[N] |==|  0.62139
USER: genes 3 Torsion [C]-N--CA-[C] |==|  0.65078
USER: genes 4 Torsion [N]-CA--C-[O] |==|  0.02281
USER: genes 5 Torsion [N]-CA--CB-[OG] |==|  0.71832
USER: genes 6 Torsion [CA]-CB--OG-[HG] |==|  0.51777
USER: genes 7 Torsion [C]-CA--CB-[CG] |==|  0.76506
USER: genes 8 Torsion [CA]-CB--CG-[CD] |==|  0.76057
USER: genes 9 Torsion [CB]-CG--CD-[NE] |==|  0.62176
USER: genes 10 Torsion [CG]-CD--NE-[CZ] |==|  0.30492
USER: genes 11 Torsion [C]-CA--N-[C] |==|  0.68169
USER: genes 12 Torsion [N]-C--CA-[N] |==|  0.34557
USER: genes 13 Torsion [C]-CA--N-[C] |==|  0.82958
USER: genes 14 Torsion [N]-C--CA-[N] |==|  0.78454
USER: genes 15 Torsion [C]-CA--N-[H1] |==|  0.48929
USER: genes 16 Torsion [C]-CA--CB-[CG2] |==|  0.97976
USER: genes 17 Torsion [CA]-CB--CG1-[CD1] |==|  0.01673
ROOT
ATOM      1  CA  ARG B   3       3.794  18.907  -6.461  0.50 56.69 LIG 0.18  C 
ENDROOT
BRANCH 1 2
ATOM      2  C   ARG B   3       4.500  20.207  -6.168  0.50 56.65 LIG 0.24  C 
ATOM      3 O    ARG B   3       5.129  20.830  -7.024  0.50 56.65 LIG-0.27  OA
ATOM      4  N   SER B   4       4.308  20.620  -4.923  0.50 56.58 LIG-0.34  N 
ATOM      5 H    SER B   4       3.688  20.306  -4.416  0.50 56.58 LIG 0.16  HD
BRANCH 4 6
ATOM      6  CA  SER B   4       5.114  21.635  -4.284  0.50 56.54 LIG 0.19  C 
BRANCH 6 7
ATOM      7  C   SER B   4       5.641  21.036  -2.989  0.50 56.54 LIG 0.22  C 
ATOM      8 O    SER B   4       5.484  19.841  -2.731  0.50 56.51 LIG-0.29  OA
ENDBRANCH 6 7
BRANCH 6 9
ATOM      9  CB  SER B   4       4.280  22.886  -4.006  0.50 56.54 LIG 0.20  C 
BRANCH 9 10
ATOM     10 OG   SER B   4       4.531  23.896  -4.967  0.50 56.48 LIG-0.40  OA
ATOM     11 HG   SER B   4       4.131  24.600  -4.745  0.50 56.48 LIG 0.21  HD
ENDBRANCH 9 10
ENDBRANCH 6 9
ENDBRANCH 4 6
ENDBRANCH 1 2
BRANCH 1 12
ATOM     12  CB  ARG B   3       3.369  18.322  -5.115  0.50 56.69 LIG 0.04  C 
BRANCH 12 13
ATOM     13  CG  ARG B   3       4.406  17.503  -4.369  0.50 56.67 LIG 0.02  C 
BRANCH 13 14
ATOM     14  CD  ARG B   3       4.425  16.035  -4.790  0.50 56.64 LIG 0.14  C 
BRANCH 14 15
ATOM     15  NE  ARG B   3       4.520  15.126  -3.642  0.50 56.60 LIG-0.23  N 
ATOM     16  CZ  ARG B   3       3.546  14.329  -3.206  0.50 56.66 LIG 0.67  C 
ATOM     17  NH2 ARG B   3       3.764  13.553  -2.149  0.50 56.73 LIG-0.23  N 
ATOM     18  NH1 ARG B   3       2.364  14.293  -3.812  0.50 56.69 LIG-0.23  N 
ATOM     19 22HH ARG B   3       3.140  13.035  -1.860  0.50 56.73 LIG 0.17  HD
ATOM     20 21HH ARG B   3       4.527  13.569  -1.754  0.50 56.73 LIG 0.17  HD
ATOM     21 12HH ARG B   3       1.745  13.773  -3.518  0.50 56.69 LIG 0.17  HD
ATOM     22 11HH ARG B   3       2.217  14.791  -4.498  0.50 56.69 LIG 0.17  HD
ATOM     23 HE   ARG B   3       5.267  15.107  -3.215  0.50 56.60 LIG 0.18  HD
ENDBRANCH 14 15
ENDBRANCH 13 14
ENDBRANCH 12 13
ENDBRANCH 1 12
BRANCH 1 24
ATOM     24  N   ARG B   3       4.527  17.891  -7.205  0.50 56.75 LIG-0.35  N 
ATOM     25  C   ILE B   2       4.128  17.530  -8.417  0.50 56.81 LIG 0.24  C 
ATOM     26 O    ILE B   2       3.315  18.183  -9.056  0.50 56.81 LIG-0.27  OA
ATOM     27 H    ARG B   3       5.210  17.565  -6.797  0.50 56.75 LIG 0.16  HD
BRANCH 25 28
ATOM     28  CA  ILE B   2       4.728  16.248  -8.991  0.50 56.86 LIG 0.18  C 
BRANCH 28 29
ATOM     29  N   ILE B   2       3.642  15.346  -9.360  0.50 56.91 LIG-0.35  N 
ATOM     30 H    ILE B   2       3.618  15.151 -10.197  0.50 56.91 LIG 0.16  HD
ATOM     31  C   ALA B   1       2.775  14.877  -8.470  0.50 56.95 LIG 0.25  C 
ATOM     32 O    ALA B   1       2.808  15.176  -7.276  0.50 56.96 LIG-0.27  OA
BRANCH 31 33
ATOM     33  CA  ALA B   1       1.705  13.932  -9.011  0.50 56.96 LIG 0.27  C 
ATOM     34  CB  ALA B   1       2.325  12.916  -9.958  0.50 56.98 LIG 0.05  C 
BRANCH 33 35
ATOM     35  N   ALA B   1       0.634  14.696  -9.710  0.50 56.97 LIG-0.07  N 
ATOM     36 H1   ALA B   1       0.048  14.128 -10.067  0.50 56.97 LIG 0.28  HD
ATOM     37 H3   ALA B   1       0.995  15.193 -10.354  0.50 56.97 LIG 0.28  HD
ATOM     38 H2   ALA B   1       0.217  15.224  -9.128  0.50 56.97 LIG 0.28  HD
ENDBRANCH 33 35
ENDBRANCH 31 33
ENDBRANCH 28 29
BRANCH 28 39
ATOM     39  CB  ILE B   2       5.604  16.540 -10.233  0.50 56.87 LIG 0.01  C 
ATOM     40  CG2 ILE B   2       5.499  18.007 -10.671  1.00 56.86 LIG 0.01  C 
BRANCH 39 41
ATOM     41  CG1 ILE B   2       7.062  16.122  -9.972  1.00 56.91 LIG 0.00  C 
ATOM     42  CD1 ILE B   2       7.307  15.395  -8.648  0.50 56.92 LIG 0.01  C 
ENDBRANCH 39 41
ENDBRANCH 28 39
ENDBRANCH 25 28
ENDBRANCH 1 24
TORSDOF 16
ENDMDL
MODEL 7
USER: ADFR SOLUTION from run 132
USER: SCORE 9.710213 LL:  -2.732 LR:  -7.128 RR:   0.000 FEB:  -2.355
USER: RMSD 4.356735
USER: SEED 131
USER: STATUS no improvement in best 6 clusters for 5 generations
USER: GENES 18
USER: genes 0 Translation |==|  0.48640 0.59878 0.54871
USER: genes 1 Rotation |==|  0.63313 0.44894 0.59444 0.96984
USER: genes 2 Torsion [N]-CA--C-[N] |==|  0.96129
USER: genes 3 Torsion [C]-N--CA-[C] |==|  0.52434
USER: genes 4 Torsion [N]-CA--C-[O] |==|  0.92870
USER: genes 5 Torsion [N]-CA--CB-[OG] |==|  0.71577
USER: genes 6 Torsion [CA]-CB--OG-[HG] |==|  0.27222
USER: genes 7 Torsion [C]-CA--CB-[CG] |==|  0.81830
USER: genes 8 Torsion [CA]-CB--CG-[CD] |==|  0.57656
USER: genes 9 Torsion [CB]-CG--CD-[NE] |==|  0.69571
USER: genes 10 Torsion [CG]-CD--NE-[CZ] |==|  0.31970
USER: genes 11 Torsion [C]-CA--N-[C] |==|  0.80666
USER: genes 12 Torsion [N]-C--CA-[N] |==|  0.39008
USER: genes 13 Torsion [C]-CA--N-[C] |==|  0.69588
USER: genes 14 Torsion [N]-C--CA-[N] |==|  0.47063
USER: genes 15 Torsion [C]-CA--N-[H1] |==|  0.42791
USER: genes 16 Torsion [C]-CA--CB-[CG2] |==|  0.10217
USER: genes 17 Torsion [CA]-CB--CG1-[CD1] |==|  0.91862
ROOT
ATOM      1  CA  ARG B   3       3.362  20.983  -5.909  0.50 56.69 LIG 0.18  C 
ENDROOT
BRANCH 1 2
ATOM      2  C   ARG B   3       3.630  21.724  -4.622  0.50 56.65 LIG 0.24  C 
ATOM      3 O    ARG B   3       2.815  21.772  -3.700  0.50 56.65 LIG-0.27  OA
ATOM      4  N   SER B   4       4.848  22.246  -4.581  0.50 56.58 LIG-0.34  N 
ATOM      5 H    SER B   4       5.476  22.010  -5.118  0.50 56.58 LIG 0.16  HD
BRANCH 4 6
ATOM      6  CA  SER B   4       5.251  23.261  -3.636  0.50 56.54 LIG 0.19  C 
BRANCH 6 7
ATOM      7  C   SER B   4       6.631  23.741  -4.058  0.50 56.54 LIG 0.22  C 
ATOM      8 O    SER B   4       7.388  23.012  -4.703  0.50 56.51 LIG-0.29  OA
ENDBRANCH 6 7
BRANCH 6 9
ATOM      9  CB  SER B   4       5.282  22.692  -2.217  0.50 56.54 LIG 0.20  C 
BRANCH 9 10
ATOM     10 OG   SER B   4       4.141  23.089  -1.477  0.50 56.48 LIG-0.40  OA
ATOM     11 HG   SER B   4       3.570  22.474  -1.491  0.50 56.48 LIG 0.21  HD
ENDBRANCH 9 10
ENDBRANCH 6 9
ENDBRANCH 4 6
ENDBRANCH 1 2
BRANCH 1 12
ATOM     12  CB  ARG B   3       3.333  19.494  -5.565  0.50 56.69 LIG 0.04  C 
BRANCH 12 13
ATOM     13  CG  ARG B   3       4.634  18.881  -5.081  0.50 56.67 LIG 0.02  C 
BRANCH 13 14
ATOM     14  CD  ARG B   3       4.743  17.389  -5.390  0.50 56.64 LIG 0.14  C 
BRANCH 14 15
ATOM     15  NE  ARG B   3       4.646  16.561  -4.183  0.50 56.60 LIG-0.23  N 
ATOM     16  CZ  ARG B   3       3.668  15.698  -3.915  0.50 56.66 LIG 0.67  C 
ATOM     17  NH2 ARG B   3       3.699  15.008  -2.779  0.50 56.73 LIG-0.23  N 
ATOM     18  NH1 ARG B   3       2.663  15.511  -4.766  0.50 56.69 LIG-0.23  N 
ATOM     19 22HH ARG B   3       3.071  14.449  -2.598  0.50 56.73 LIG 0.17  HD
ATOM     20 21HH ARG B   3       4.347  15.122  -2.225  0.50 56.73 LIG 0.17  HD
ATOM     21 12HH ARG B   3       2.039  14.950  -4.578  0.50 56.69 LIG 0.17  HD
ATOM     22 11HH ARG B   3       2.638  15.951  -5.504  0.50 56.69 LIG 0.17  HD
ATOM     23 HE   ARG B   3       5.273  16.640  -3.599  0.50 56.60 LIG 0.18  HD
ENDBRANCH 14 15
ENDBRANCH 13 14
ENDBRANCH 12 13
ENDBRANCH 1 12
BRANCH 1 24
ATOM     24  N   ARG B   3       4.287  21.192  -7.014  0.50 56.75 LIG-0.35  N 
ATOM     25  C   ILE B   2       4.326  22.359  -7.645  0.50 56.81 LIG 0.24  C 
ATOM     26 O    ILE B   2       3.797  23.363  -7.188  0.50 56.81 LIG-0.27  OA
ATOM     27 H    ARG B   3       4.781  20.515  -7.208  0.50 56.75 LIG 0.16  HD
BRANCH 25 28
ATOM     28  CA  ILE B   2       5.062  22.400  -8.983  0.50 56.86 LIG 0.18  C 
BRANCH 28 29
ATOM     29  N   ILE B   2       4.314  23.249  -9.903  0.50 56.91 LIG-0.35  N 
ATOM     30 H    ILE B   2       4.340  24.086  -9.709  0.50 56.91 LIG 0.16  HD
ATOM     31  C   ALA B   1       3.655  22.757 -10.947  0.50 56.95 LIG 0.25  C 
ATOM     32 O    ALA B   1       3.610  21.555 -11.208  0.50 56.96 LIG-0.27  OA
BRANCH 31 33
ATOM     33  CA  ALA B   1       2.932  23.777 -11.824  0.50 56.96 LIG 0.27  C 
ATOM     34  CB  ALA B   1       1.762  24.390 -11.070  0.50 56.98 LIG 0.05  C 
BRANCH 33 35
ATOM     35  N   ALA B   1       2.453  23.141 -13.083  0.50 56.97 LIG-0.07  N 
ATOM     36 H1   ALA B   1       1.750  23.590 -13.394  0.50 56.97 LIG 0.28  HD
ATOM     37 H3   ALA B   1       2.219  22.299 -12.920  0.50 56.97 LIG 0.28  HD
ATOM     38 H2   ALA B   1       3.105  23.155 -13.690  0.50 56.97 LIG 0.28  HD
ENDBRANCH 33 35
ENDBRANCH 31 33
ENDBRANCH 28 29
BRANCH 28 39
ATOM     39  CB  ILE B   2       6.498  22.952  -8.820  0.50 56.87 LIG 0.01  C 
ATOM     40  CG2 ILE B   2       7.140  22.489  -7.505  1.00 56.86 LIG 0.01  C 
BRANCH 39 41
ATOM     41  CG1 ILE B   2       7.359  22.578 -10.041  1.00 56.91 LIG 0.00  C 
ATOM     42  CD1 ILE B   2       6.965  21.278 -10.744  0.50 56.92 LIG 0.01  C 
ENDBRANCH 39 41
ENDBRANCH 28 39
ENDBRANCH 25 28
ENDBRANCH 1 24
TORSDOF 16
ENDMDL
MODEL 8
USER: ADFR SOLUTION from run 137
USER: SCORE 8.476068 LL:  -2.333 LR:  -6.657 RR:   0.000 FEB:  -1.884
USER: RMSD 1.655035
USER: SEED 136
USER: STATUS no improvement in best 5 clusters for 5 generations
USER: GENES 18
USER: genes 0 Translation |==|  0.48763 0.56622 0.53800
USER: genes 1 Rotation |==|  0.51514 0.56864 0.53456 0.99383
USER: genes 2 Torsion [N]-CA--C-[N] |==|  0.52733
USER: genes 3 Torsion [C]-N--CA-[C] |==|  0.78086
USER: genes 4 Torsion [N]-CA--C-[O] |==|  0.89139
USER: genes 5 Torsion [N]-CA--CB-[OG] |==|  0.58740
USER: genes 6 Torsion [CA]-CB--OG-[HG] |==|  0.25350
USER: genes 7 Torsion [C]-CA--CB-[CG] |==|  0.81065
USER: genes 8 Torsion [CA]-CB--CG-[CD] |==|  0.68585
USER: genes 9 Torsion [CB]-CG--CD-[NE] |==|  0.69673
USER: genes 10 Torsion [CG]-CD--NE-[CZ] |==|  0.31499
USER: genes 11 Torsion [C]-CA--N-[C] |==|  0.76412
USER: genes 12 Torsion [N]-C--CA-[N] |==|  0.37414
USER: genes 13 Torsion [C]-CA--N-[C] |==|  0.66427
USER: genes 14 Torsion [N]-C--CA-[N] |==|  0.44678
USER: genes 15 Torsion [C]-CA--N-[H1] |==|  0.47986
USER: genes 16 Torsion [C]-CA--CB-[CG2] |==|  0.99215
USER: genes 17 Torsion [CA]-CB--CG1-[CD1] |==|  0.00288
ROOT
ATOM      1  CA  ARG B   3       3.399  20.007  -6.230  0.50 56.69 LIG 0.18  C 
ENDROOT
BRANCH 1 2
ATOM      2  C   ARG B   3       4.244  21.157  -5.743  0.50 56.65 LIG 0.24  C 
ATOM      3 O    ARG B   3       5.034  21.758  -6.471  0.50 56.65 LIG-0.27  OA
ATOM      4  N   SER B   4       3.989  21.475  -4.481  0.50 56.58 LIG-0.34  N 
ATOM      5 H    SER B   4       3.285  21.210  -4.065  0.50 56.58 LIG 0.16  HD
BRANCH 4 6
ATOM      6  CA  SER B   4       4.859  22.298  -3.673  0.50 56.54 LIG 0.19  C 
BRANCH 6 7
ATOM      7  C   SER B   4       6.003  21.411  -3.204  0.50 56.54 LIG 0.22  C 
ATOM      8 O    SER B   4       5.803  20.242  -2.867  0.50 56.51 LIG-0.29  OA
ENDBRANCH 6 7
BRANCH 6 9
ATOM      9  CB  SER B   4       4.096  22.878  -2.482  0.50 56.54 LIG 0.20  C 
BRANCH 9 10
ATOM     10 OG   SER B   4       4.604  24.149  -2.115  0.50 56.48 LIG-0.40  OA
ATOM     11 HG   SER B   4       4.183  24.748  -2.525  0.50 56.48 LIG 0.21  HD
ENDBRANCH 9 10
ENDBRANCH 6 9
ENDBRANCH 4 6
ENDBRANCH 1 2
BRANCH 1 12
ATOM     12  CB  ARG B   3       3.473  18.918  -5.160  0.50 56.69 LIG 0.04  C 
BRANCH 12 13
ATOM     13  CG  ARG B   3       4.812  18.230  -4.978  0.50 56.67 LIG 0.02  C 
BRANCH 13 14
ATOM     14  CD  ARG B   3       4.789  16.759  -5.386  0.50 56.64 LIG 0.14  C 
BRANCH 14 15
ATOM     15  NE  ARG B   3       4.882  15.858  -4.231  0.50 56.60 LIG-0.23  N 
ATOM     16  CZ  ARG B   3       3.920  15.039  -3.811  0.50 56.66 LIG 0.67  C 
ATOM     17  NH2 ARG B   3       4.135  14.274  -2.745  0.50 56.73 LIG-0.23  N 
ATOM     18  NH1 ARG B   3       2.752  14.969  -4.442  0.50 56.69 LIG-0.23  N 
ATOM     19 22HH ARG B   3       3.519  13.741  -2.467  0.50 56.73 LIG 0.17  HD
ATOM     20 21HH ARG B   3       4.889  14.311  -2.334  0.50 56.73 LIG 0.17  HD
ATOM     21 12HH ARG B   3       2.141  14.435  -4.158  0.50 56.69 LIG 0.17  HD
ATOM     22 11HH ARG B   3       2.608  15.460  -5.133  0.50 56.69 LIG 0.17  HD
ATOM     23 HE   ARG B   3       5.620  15.860  -3.788  0.50 56.60 LIG 0.18  HD
ENDBRANCH 14 15
ENDBRANCH 13 14
ENDBRANCH 12 13
ENDBRANCH 1 12
BRANCH 1 24
ATOM     24  N   ARG B   3       3.734  19.420  -7.520  0.50 56.75 LIG-0.35  N 
ATOM     25  C   ILE B   2       3.263  19.950  -8.641  0.50 56.81 LIG 0.24  C 
ATOM     26 O    ILE B   2       2.757  21.063  -8.671  0.50 56.81 LIG-0.27  OA
ATOM     27 H    ARG B   3       4.243  18.727  -7.484  0.50 56.75 LIG 0.16  HD
BRANCH 25 28
ATOM     28  CA  ILE B   2       3.374  19.105  -9.909  0.50 56.86 LIG 0.18  C 
BRANCH 28 29
ATOM     29  N   ILE B   2       2.104  19.163 -10.624  0.50 56.91 LIG-0.35  N 
ATOM     30 H    ILE B   2       1.865  19.958 -10.850  0.50 56.91 LIG 0.16  HD
ATOM     31  C   ALA B   1       1.389  18.077 -10.894  0.50 56.95 LIG 0.25  C 
ATOM     32 O    ALA B   1       1.731  16.944 -10.551  0.50 56.96 LIG-0.27  OA
BRANCH 31 33
ATOM     33  CA  ALA B   1       0.089  18.303 -11.662  0.50 56.96 LIG 0.27  C 
ATOM     34  CB  ALA B   1      -0.986  18.847 -10.735  0.50 56.98 LIG 0.05  C 
BRANCH 33 35
ATOM     35  N   ALA B   1      -0.374  17.037 -12.296  0.50 56.97 LIG-0.07  N 
ATOM     36 H1   ALA B   1      -1.182  17.160 -12.649  0.50 56.97 LIG 0.28  HD
ATOM     37 H3   ALA B   1      -0.413  16.395 -11.682  0.50 56.97 LIG 0.28  HD
ATOM     38 H2   ALA B   1       0.197  16.799 -12.937  0.50 56.97 LIG 0.28  HD
ENDBRANCH 33 35
ENDBRANCH 31 33
ENDBRANCH 28 29
BRANCH 28 39
ATOM     39  CB  ILE B   2       4.510  19.612 -10.828  0.50 56.87 LIG 0.01  C 
ATOM     40  CG2 ILE B   2       5.182  20.870 -10.262  1.00 56.86 LIG 0.01  C 
BRANCH 39 41
ATOM     41  CG1 ILE B   2       5.528  18.488 -11.094  1.00 56.91 LIG 0.00  C 
ATOM     42  CD1 ILE B   2       5.203  17.144 -10.439  0.50 56.92 LIG 0.01  C 
ENDBRANCH 39 41
ENDBRANCH 28 39
ENDBRANCH 25 28
ENDBRANCH 1 24
TORSDOF 16
ENDMDL
MODEL 9
USER: ADFR SOLUTION from run 133
USER: SCORE 8.139050 LL:  -1.844 LR:  -6.450 RR:   0.000 FEB:  -1.678
USER: RMSD 3.482768
USER: SEED 132
USER: STATUS no improvement in best 10 clusters for 5 generations
USER: GENES 18
USER: genes 0 Translation |==|  0.49052 0.57702 0.52236
USER: genes 1 Rotation |==|  0.64098 0.58758 0.57058 0.96634
USER: genes 2 Torsion [N]-CA--C-[N] |==|  0.46221
USER: genes 3 Torsion [C]-N--CA-[C] |==|  0.70722
USER: genes 4 Torsion [N]-CA--C-[O] |==|  0.05067
USER: genes 5 Torsion [N]-CA--CB-[OG] |==|  0.66090
USER: genes 6 Torsion [CA]-CB--OG-[HG] |==|  0.39332
USER: genes 7 Torsion [C]-CA--CB-[CG] |==|  0.18676
USER: genes 8 Torsion [CA]-CB--CG-[CD] |==|  0.53429
USER: genes 9 Torsion [CB]-CG--CD-[NE] |==|  0.62387
USER: genes 10 Torsion [CG]-CD--NE-[CZ] |==|  0.53837
USER: genes 11 Torsion [C]-CA--N-[C] |==|  0.81092
USER: genes 12 Torsion [N]-C--CA-[N] |==|  0.98035
USER: genes 13 Torsion [C]-CA--N-[C] |==|  0.73472
USER: genes 14 Torsion [N]-C--CA-[N] |==|  0.10916
USER: genes 15 Torsion [C]-CA--N-[H1] |==|  0.44820
USER: genes 16 Torsion [C]-CA--CB-[CG2] |==|  0.95806
USER: genes 17 Torsion [CA]-CB--CG1-[CD1] |==|  0.88282
ROOT
ATOM      1  CA  ARG B   3       3.486  20.331  -6.699  0.50 56.69 LIG 0.18  C 
ENDROOT
BRANCH 1 2
ATOM      2  C   ARG B   3       4.333  21.179  -5.783  0.50 56.65 LIG 0.24  C 
ATOM      3 O    ARG B   3       5.284  21.849  -6.187  0.50 56.65 LIG-0.27  OA
ATOM      4  N   SER B   4       3.895  21.167  -4.532  0.50 56.58 LIG-0.34  N 
ATOM      5 H    SER B   4       3.110  20.892  -4.313  0.50 56.58 LIG 0.16  HD
BRANCH 4 6
ATOM      6  CA  SER B   4       4.683  21.611  -3.406  0.50 56.54 LIG 0.19  C 
BRANCH 6 7
ATOM      7  C   SER B   4       5.135  20.366  -2.658  0.50 56.54 LIG 0.22  C 
ATOM      8 O    SER B   4       5.115  19.258  -3.198  0.50 56.51 LIG-0.29  OA
ENDBRANCH 6 7
BRANCH 6 9
ATOM      9  CB  SER B   4       3.857  22.522  -2.497  0.50 56.54 LIG 0.20  C 
BRANCH 9 10
ATOM     10 OG   SER B   4       4.465  23.793  -2.351  0.50 56.48 LIG-0.40  OA
ATOM     11 HG   SER B   4       3.873  24.388  -2.343  0.50 56.48 LIG 0.21  HD
ENDBRANCH 9 10
ENDBRANCH 6 9
ENDBRANCH 4 6
ENDBRANCH 1 2
BRANCH 1 12
ATOM     12  CB  ARG B   3       3.759  18.873  -6.331  0.50 56.69 LIG 0.04  C 
BRANCH 12 13
ATOM     13  CG  ARG B   3       3.285  18.414  -4.965  0.50 56.67 LIG 0.02  C 
BRANCH 13 14
ATOM     14  CD  ARG B   3       3.853  17.056  -4.560  0.50 56.64 LIG 0.14  C 
BRANCH 14 15
ATOM     15  NE  ARG B   3       2.833  16.174  -3.980  0.50 56.60 LIG-0.23  N 
ATOM     16  CZ  ARG B   3       3.075  15.051  -3.308  0.50 56.66 LIG 0.67  C 
ATOM     17  NH2 ARG B   3       2.055  14.342  -2.835  0.50 56.73 LIG-0.23  N 
ATOM     18  NH1 ARG B   3       4.318  14.629  -3.098  0.50 56.69 LIG-0.23  N 
ATOM     19 22HH ARG B   3       2.202  13.614  -2.399  0.50 56.73 LIG 0.17  HD
ATOM     20 21HH ARG B   3       1.248  14.609  -2.964  0.50 56.73 LIG 0.17  HD
ATOM     21 12HH ARG B   3       4.457  13.901  -2.662  0.50 56.69 LIG 0.17  HD
ATOM     22 11HH ARG B   3       4.982  15.084  -3.399  0.50 56.69 LIG 0.17  HD
ATOM     23 HE   ARG B   3       2.010  16.403  -4.083  0.50 56.60 LIG 0.18  HD
ENDBRANCH 14 15
ENDBRANCH 13 14
ENDBRANCH 12 13
ENDBRANCH 1 12
BRANCH 1 24
ATOM     24  N   ARG B   3       3.669  20.495  -8.135  0.50 56.75 LIG-0.35  N 
ATOM     25  C   ILE B   2       3.306  21.622  -8.733  0.50 56.81 LIG 0.24  C 
ATOM     26 O    ILE B   2       3.050  22.639  -8.103  0.50 56.81 LIG-0.27  OA
ATOM     27 H    ARG B   3       4.019  19.819  -8.536  0.50 56.75 LIG 0.16  HD
BRANCH 25 28
ATOM     28  CA  ILE B   2       3.215  21.600 -10.257  0.50 56.86 LIG 0.18  C 
BRANCH 28 29
ATOM     29  N   ILE B   2       3.729  20.324 -10.740  0.50 56.91 LIG-0.35  N 
ATOM     30 H    ILE B   2       3.150  19.689 -10.738  0.50 56.91 LIG 0.16  HD
ATOM     31  C   ALA B   1       4.985  20.170 -11.144  0.50 56.95 LIG 0.25  C 
ATOM     32 O    ALA B   1       5.814  21.081 -11.128  0.50 56.96 LIG-0.27  OA
BRANCH 31 33
ATOM     33  CA  ALA B   1       5.366  18.775 -11.634  0.50 56.96 LIG 0.27  C 
ATOM     34  CB  ALA B   1       6.634  18.835 -12.472  0.50 56.98 LIG 0.05  C 
BRANCH 33 35
ATOM     35  N   ALA B   1       4.256  18.176 -12.428  0.50 56.97 LIG-0.07  N 
ATOM     36 H1   ALA B   1       4.572  17.507 -12.923  0.50 56.97 LIG 0.28  HD
ATOM     37 H3   ALA B   1       3.902  18.796 -12.959  0.50 56.97 LIG 0.28  HD
ATOM     38 H2   ALA B   1       3.630  17.866 -11.876  0.50 56.97 LIG 0.28  HD
ENDBRANCH 33 35
ENDBRANCH 31 33
ENDBRANCH 28 29
BRANCH 28 39
ATOM     39  CB  ILE B   2       1.757  21.788 -10.739  0.50 56.87 LIG 0.01  C 
ATOM     40  CG2 ILE B   2       0.750  21.575  -9.600  1.00 56.86 LIG 0.01  C 
BRANCH 39 41
ATOM     41  CG1 ILE B   2       1.584  23.163 -11.408  1.00 56.91 LIG 0.00  C 
ATOM     42  CD1 ILE B   2       2.276  24.327 -10.696  0.50 56.92 LIG 0.01  C 
ENDBRANCH 39 41
ENDBRANCH 28 39
ENDBRANCH 25 28
ENDBRANCH 1 24
TORSDOF 16
ENDMDL
MODEL 10
USER: ADFR SOLUTION from run 87
USER: SCORE 7.782858 LL:  -2.163 LR:  -6.391 RR:   0.000 FEB:  -1.618
USER: RMSD 1.614245
USER: SEED 86
USER: STATUS no improvement in best 6 clusters for 5 generations
USER: GENES 18
USER: genes 0 Translation |==|  0.49256 0.54293 0.54383
USER: genes 1 Rotation |==|  0.45793 0.54155 0.55562 0.99337
USER: genes 2 Torsion [N]-CA--C-[N] |==|  0.54998
USER: genes 3 Torsion [C]-N--CA-[C] |==|  0.81808
USER: genes 4 Torsion [N]-CA--C-[O] |==|  0.89697
USER: genes 5 Torsion [N]-CA--CB-[OG] |==|  0.54370
USER: genes 6 Torsion [CA]-CB--OG-[HG] |==|  0.22405
USER: genes 7 Torsion [C]-CA--CB-[CG] |==|  0.56464
USER: genes 8 Torsion [CA]-CB--CG-[CD] |==|  0.61688
USER: genes 9 Torsion [CB]-CG--CD-[NE] |==|  0.20492
USER: genes 10 Torsion [CG]-CD--NE-[CZ] |==|  0.52830
USER: genes 11 Torsion [C]-CA--N-[C] |==|  0.77171
USER: genes 12 Torsion [N]-C--CA-[N] |==|  0.22727
USER: genes 13 Torsion [C]-CA--N-[C] |==|  0.77162
USER: genes 14 Torsion [N]-C--CA-[N] |==|  0.26941
USER: genes 15 Torsion [C]-CA--N-[H1] |==|  0.87889
USER: genes 16 Torsion [C]-CA--CB-[CG2] |==|  0.14712
USER: genes 17 Torsion [CA]-CB--CG1-[CD1] |==|  0.88733
ROOT
ATOM      1  CA  ARG B   3       3.547  19.308  -6.055  0.50 56.69 LIG 0.18  C 
ENDROOT
BRANCH 1 2
ATOM      2  C   ARG B   3       4.202  20.627  -5.731  0.50 56.65 LIG 0.24  C 
ATOM      3 O    ARG B   3       4.906  21.236  -6.536  0.50 56.65 LIG-0.27  OA
ATOM      4  N   SER B   4       3.879  21.071  -4.524  0.50 56.58 LIG-0.34  N 
ATOM      5 H    SER B   4       3.215  20.761  -4.073  0.50 56.58 LIG 0.16  HD
BRANCH 4 6
ATOM      6  CA  SER B   4       4.602  22.117  -3.837  0.50 56.54 LIG 0.19  C 
BRANCH 6 7
ATOM      7  C   SER B   4       5.995  21.580  -3.548  0.50 56.54 LIG 0.22  C 
ATOM      8 O    SER B   4       6.170  20.399  -3.237  0.50 56.51 LIG-0.29  OA
ENDBRANCH 6 7
BRANCH 6 9
ATOM      9  CB  SER B   4       3.887  22.502  -2.541  0.50 56.54 LIG 0.20  C 
BRANCH 9 10
ATOM     10 OG   SER B   4       4.360  23.741  -2.042  0.50 56.48 LIG-0.40  OA
ATOM     11 HG   SER B   4       3.988  24.370  -2.455  0.50 56.48 LIG 0.21  HD
ENDBRANCH 9 10
ENDBRANCH 6 9
ENDBRANCH 4 6
ENDBRANCH 1 2
BRANCH 1 12
ATOM     12  CB  ARG B   3       3.581  18.471  -4.777  0.50 56.69 LIG 0.04  C 
BRANCH 12 13
ATOM     13  CG  ARG B   3       3.497  16.966  -4.945  0.50 56.67 LIG 0.02  C 
BRANCH 13 14
ATOM     14  CD  ARG B   3       2.580  16.299  -3.921  0.50 56.64 LIG 0.14  C 
BRANCH 14 15
ATOM     15  NE  ARG B   3       1.161  16.541  -4.204  0.50 56.60 LIG-0.23  N 
ATOM     16  CZ  ARG B   3       0.151  16.250  -3.386  0.50 56.66 LIG 0.67  C 
ATOM     17  NH2 ARG B   3      -1.094  16.520  -3.766  0.50 56.73 LIG-0.23  N 
ATOM     18  NH1 ARG B   3       0.366  15.699  -2.195  0.50 56.69 LIG-0.23  N 
ATOM     19 22HH ARG B   3      -1.753  16.335  -3.244  0.50 56.73 LIG 0.17  HD
ATOM     20 21HH ARG B   3      -1.241  16.879  -4.534  0.50 56.73 LIG 0.17  HD
ATOM     21 12HH ARG B   3      -0.297  15.517  -1.679  0.50 56.69 LIG 0.17  HD
ATOM     22 11HH ARG B   3       1.169  15.524  -1.942  0.50 56.69 LIG 0.17  HD
ATOM     23 HE   ARG B   3       0.965  16.899  -4.961  0.50 56.60 LIG 0.18  HD
ENDBRANCH 14 15
ENDBRANCH 13 14
ENDBRANCH 12 13
ENDBRANCH 1 12
BRANCH 1 24
ATOM     24  N   ARG B   3       4.110  18.523  -7.145  0.50 56.75 LIG-0.35  N 
ATOM     25  C   ILE B   2       3.787  18.794  -8.403  0.50 56.81 LIG 0.24  C 
ATOM     26 O    ILE B   2       3.228  19.835  -8.721  0.50 56.81 LIG-0.27  OA
ATOM     27 H    ARG B   3       4.646  17.896  -6.903  0.50 56.75 LIG 0.16  HD
BRANCH 25 28
ATOM     28  CA  ILE B   2       4.139  17.741  -9.452  0.50 56.86 LIG 0.18  C 
BRANCH 28 29
ATOM     29  N   ILE B   2       3.106  16.712  -9.449  0.50 56.91 LIG-0.35  N 
ATOM     30 H    ILE B   2       2.509  16.812 -10.060  0.50 56.91 LIG 0.16  HD
ATOM     31  C   ALA B   1       3.100  15.713  -8.573  0.50 56.95 LIG 0.25  C 
ATOM     32 O    ALA B   1       3.950  15.588  -7.691  0.50 56.96 LIG-0.27  OA
BRANCH 31 33
ATOM     33  CA  ALA B   1       1.959  14.708  -8.710  0.50 56.96 LIG 0.27  C 
ATOM     34  CB  ALA B   1       1.459  14.285  -7.337  0.50 56.98 LIG 0.05  C 
BRANCH 33 35
ATOM     35  N   ALA B   1       2.399  13.515  -9.485  0.50 56.97 LIG-0.07  N 
ATOM     36 H1   ALA B   1       2.872  13.778 -10.192  0.50 56.97 LIG 0.28  HD
ATOM     37 H3   ALA B   1       1.686  13.060  -9.760  0.50 56.97 LIG 0.28  HD
ATOM     38 H2   ALA B   1       2.903  12.994  -8.968  0.50 56.97 LIG 0.28  HD
ENDBRANCH 33 35
ENDBRANCH 31 33
ENDBRANCH 28 29
BRANCH 28 39
ATOM     39  CB  ILE B   2       4.245  18.365 -10.864  0.50 56.87 LIG 0.01  C 
ATOM     40  CG2 ILE B   2       5.202  19.565 -10.886  1.00 56.86 LIG 0.01  C 
BRANCH 39 41
ATOM     41  CG1 ILE B   2       4.645  17.294 -11.896  1.00 56.91 LIG 0.00  C 
ATOM     42  CD1 ILE B   2       5.707  16.299 -11.426  0.50 56.92 LIG 0.01  C 
ENDBRANCH 39 41
ENDBRANCH 28 39
ENDBRANCH 25 28
ENDBRANCH 1 24
TORSDOF 16
ENDMDL
MODEL 11
USER: ADFR SOLUTION from run 133
USER: SCORE 8.121670 LL:  -1.943 LR:  -6.349 RR:   0.000 FEB:  -1.576
USER: RMSD 3.368251
USER: SEED 132
USER: STATUS no improvement in best 10 clusters for 5 generations
USER: GENES 18
USER: genes 0 Translation |==|  0.49092 0.57911 0.52159
USER: genes 1 Rotation |==|  0.63723 0.59436 0.57140 0.96601
USER: genes 2 Torsion [N]-CA--C-[N] |==|  0.45901
USER: genes 3 Torsion [C]-N--CA-[C] |==|  0.70609
USER: genes 4 Torsion [N]-CA--C-[O] |==|  0.05082
USER: genes 5 Torsion [N]-CA--CB-[OG] |==|  0.66105
USER: genes 6 Torsion [CA]-CB--OG-[HG] |==|  0.39325
USER: genes 7 Torsion [C]-CA--CB-[CG] |==|  0.18511
USER: genes 8 Torsion [CA]-CB--CG-[CD] |==|  0.53509
USER: genes 9 Torsion [CB]-CG--CD-[NE] |==|  0.62296
USER: genes 10 Torsion [CG]-CD--NE-[CZ] |==|  0.53902
USER: genes 11 Torsion [C]-CA--N-[C] |==|  0.81290
USER: genes 12 Torsion [N]-C--CA-[N] |==|  0.34792
USER: genes 13 Torsion [C]-CA--N-[C] |==|  0.83502
USER: genes 14 Torsion [N]-C--CA-[N] |==|  0.28170
USER: genes 15 Torsion [C]-CA--N-[H1] |==|  0.72716
USER: genes 16 Torsion [C]-CA--CB-[CG2] |==|  0.12714
USER: genes 17 Torsion [CA]-CB--CG1-[CD1] |==|  0.88248
ROOT
ATOM      1  CA  ARG B   3       3.497  20.393  -6.722  0.50 56.69 LIG 0.18  C 
ENDROOT
BRANCH 1 2
ATOM      2  C   ARG B   3       4.353  21.268  -5.840  0.50 56.65 LIG 0.24  C 
ATOM      3 O    ARG B   3       5.298  21.928  -6.273  0.50 56.65 LIG-0.27  OA
ATOM      4  N   SER B   4       3.929  21.291  -4.584  0.50 56.58 LIG-0.34  N 
ATOM      5 H    SER B   4       3.147  21.021  -4.349  0.50 56.58 LIG 0.16  HD
BRANCH 4 6
ATOM      6  CA  SER B   4       4.729  21.768  -3.480  0.50 56.54 LIG 0.19  C 
BRANCH 6 7
ATOM      7  C   SER B   4       5.182  20.545  -2.696  0.50 56.54 LIG 0.22  C 
ATOM      8 O    SER B   4       5.155  19.421  -3.201  0.50 56.51 LIG-0.29  OA
ENDBRANCH 6 7
BRANCH 6 9
ATOM      9  CB  SER B   4       3.914  22.711  -2.594  0.50 56.54 LIG 0.20  C 
BRANCH 9 10
ATOM     10 OG   SER B   4       4.528  23.984  -2.495  0.50 56.48 LIG-0.40  OA
ATOM     11 HG   SER B   4       3.938  24.581  -2.501  0.50 56.48 LIG 0.21  HD
ENDBRANCH 9 10
ENDBRANCH 6 9
ENDBRANCH 4 6
ENDBRANCH 1 2
BRANCH 1 12
ATOM     12  CB  ARG B   3       3.799  18.946  -6.336  0.50 56.69 LIG 0.04  C 
BRANCH 12 13
ATOM     13  CG  ARG B   3       3.374  18.508  -4.947  0.50 56.67 LIG 0.02  C 
BRANCH 13 14
ATOM     14  CD  ARG B   3       3.976  17.167  -4.532  0.50 56.64 LIG 0.14  C 
BRANCH 14 15
ATOM     15  NE  ARG B   3       2.990  16.285  -3.897  0.50 56.60 LIG-0.23  N 
ATOM     16  CZ  ARG B   3       3.272  15.183  -3.205  0.50 56.66 LIG 0.67  C 
ATOM     17  NH2 ARG B   3       2.280  14.471  -2.681  0.50 56.73 LIG-0.23  N 
ATOM     18  NH1 ARG B   3       4.528  14.786  -3.027  0.50 56.69 LIG-0.23  N 
ATOM     19 22HH ARG B   3       2.453  13.757  -2.232  0.50 56.73 LIG 0.17  HD
ATOM     20 21HH ARG B   3       1.465  14.723  -2.789  0.50 56.73 LIG 0.17  HD
ATOM     21 12HH ARG B   3       4.694  14.071  -2.578  0.50 56.69 LIG 0.17  HD
ATOM     22 11HH ARG B   3       5.175  15.243  -3.361  0.50 56.69 LIG 0.17  HD
ATOM     23 HE   ARG B   3       2.160  16.498  -3.978  0.50 56.60 LIG 0.18  HD
ENDBRANCH 14 15
ENDBRANCH 13 14
ENDBRANCH 12 13
ENDBRANCH 1 12
BRANCH 1 24
ATOM     24  N   ARG B   3       3.646  20.535  -8.165  0.50 56.75 LIG-0.35  N 
ATOM     25  C   ILE B   2       3.268  21.653  -8.771  0.50 56.81 LIG 0.24  C 
ATOM     26 O    ILE B   2       3.025  22.679  -8.151  0.50 56.81 LIG-0.27  OA
ATOM     27 H    ARG B   3       3.988  19.854  -8.564  0.50 56.75 LIG 0.16  HD
BRANCH 25 28
ATOM     28  CA  ILE B   2       3.141  21.608 -10.293  0.50 56.86 LIG 0.18  C 
BRANCH 28 29
ATOM     29  N   ILE B   2       1.801  22.048 -10.664  0.50 56.91 LIG-0.35  N 
ATOM     30 H    ILE B   2       1.788  22.738 -11.177  0.50 56.91 LIG 0.16  HD
ATOM     31  C   ALA B   1       0.705  21.428 -10.241  0.50 56.95 LIG 0.25  C 
ATOM     32 O    ALA B   1       0.733  20.449  -9.494  0.50 56.96 LIG-0.27  OA
BRANCH 31 33
ATOM     33  CA  ALA B   1      -0.622  22.002 -10.730  0.50 56.96 LIG 0.27  C 
ATOM     34  CB  ALA B   1      -1.624  22.067  -9.588  0.50 56.98 LIG 0.05  C 
BRANCH 33 35
ATOM     35  N   ALA B   1      -1.170  21.182 -11.847  0.50 56.97 LIG-0.07  N 
ATOM     36 H1   ALA B   1      -0.967  21.566 -12.624  0.50 56.97 LIG 0.28  HD
ATOM     37 H3   ALA B   1      -2.054  21.125 -11.767  0.50 56.97 LIG 0.28  HD
ATOM     38 H2   ALA B   1      -0.816  20.366 -11.818  0.50 56.97 LIG 0.28  HD
ENDBRANCH 33 35
ENDBRANCH 31 33
ENDBRANCH 28 29
BRANCH 28 39
ATOM     39  CB  ILE B   2       4.193  22.514 -10.975  0.50 56.87 LIG 0.01  C 
ATOM     40  CG2 ILE B   2       5.588  22.325 -10.365  1.00 56.86 LIG 0.01  C 
BRANCH 39 41
ATOM     41  CG1 ILE B   2       4.195  22.284 -12.497  1.00 56.91 LIG 0.00  C 
ATOM     42  CD1 ILE B   2       4.096  20.822 -12.936  0.50 56.92 LIG 0.01  C 
ENDBRANCH 39 41
ENDBRANCH 28 39
ENDBRANCH 25 28
ENDBRANCH 1 24
TORSDOF 16
ENDMDL
MODEL 12
USER: ADFR SOLUTION from run 147
USER: SCORE 7.972829 LL:  -2.274 LR:  -6.299 RR:   0.000 FEB:  -1.526
USER: RMSD 1.927295
USER: SEED 146
USER: STATUS no improvement in best 5 clusters for 5 generations
USER: GENES 18
USER: genes 0 Translation |==|  0.49417 0.57247 0.53331
USER: genes 1 Rotation |==|  0.61148 0.50194 0.53653 0.98604
USER: genes 2 Torsion [N]-CA--C-[N] |==|  0.54852
USER: genes 3 Torsion [C]-N--CA-[C] |==|  0.17413
USER: genes 4 Torsion [N]-CA--C-[O] |==|  0.39516
USER: genes 5 Torsion [N]-CA--CB-[OG] |==|  0.84491
USER: genes 6 Torsion [CA]-CB--OG-[HG] |==|  0.40842
USER: genes 7 Torsion [C]-CA--CB-[CG] |==|  0.83359
USER: genes 8 Torsion [CA]-CB--CG-[CD] |==|  0.57187
USER: genes 9 Torsion [CB]-CG--CD-[NE] |==|  0.85678
USER: genes 10 Torsion [CG]-CD--NE-[CZ] |==|  0.67779
USER: genes 11 Torsion [C]-CA--N-[C] |==|  0.59646
USER: genes 12 Torsion [N]-C--CA-[N] |==|  0.35433
USER: genes 13 Torsion [C]-CA--N-[C] |==|  0.81754
USER: genes 14 Torsion [N]-C--CA-[N] |==|  0.82344
USER: genes 15 Torsion [C]-CA--N-[H1] |==|  0.40927
USER: genes 16 Torsion [C]-CA--CB-[CG2] |==|  0.05569
USER: genes 17 Torsion [CA]-CB--CG1-[CD1] |==|  0.00902
ROOT
ATOM      1  CA  ARG B   3       3.595  20.194  -6.371  0.50 56.69 LIG 0.18  C 
ENDROOT
BRANCH 1 2
ATOM      2  C   ARG B   3       4.305  20.981  -5.298  0.50 56.65 LIG 0.24  C 
ATOM      3 O    ARG B   3       5.152  21.838  -5.551  0.50 56.65 LIG-0.27  OA
ATOM      4  N   SER B   4       3.865  20.692  -4.081  0.50 56.58 LIG-0.34  N 
ATOM      5 H    SER B   4       3.126  20.275  -3.937  0.50 56.58 LIG 0.16  HD
BRANCH 4 6
ATOM      6  CA  SER B   4       4.573  21.041  -2.871  0.50 56.54 LIG 0.19  C 
BRANCH 6 7
ATOM      7  C   SER B   4       4.645  22.560  -2.820  0.50 56.54 LIG 0.22  C 
ATOM      8 O    SER B   4       4.532  23.167  -1.752  0.50 56.51 LIG-0.29  OA
ENDBRANCH 6 7
BRANCH 6 9
ATOM      9  CB  SER B   4       5.974  20.429  -2.872  0.50 56.54 LIG 0.20  C 
BRANCH 9 10
ATOM     10 OG   SER B   4       5.921  19.024  -3.048  0.50 56.48 LIG-0.40  OA
ATOM     11 HG   SER B   4       6.596  18.770  -3.478  0.50 56.48 LIG 0.21  HD
ENDBRANCH 9 10
ENDBRANCH 6 9
ENDBRANCH 4 6
ENDBRANCH 1 2
BRANCH 1 12
ATOM     12  CB  ARG B   3       3.410  18.776  -5.830  0.50 56.69 LIG 0.04  C 
BRANCH 12 13
ATOM     13  CG  ARG B   3       4.671  18.015  -5.468  0.50 56.67 LIG 0.02  C 
BRANCH 13 14
ATOM     14  CD  ARG B   3       4.499  16.499  -5.548  0.50 56.64 LIG 0.14  C 
BRANCH 14 15
ATOM     15  NE  ARG B   3       3.329  16.031  -4.796  0.50 56.60 LIG-0.23  N 
ATOM     16  CZ  ARG B   3       3.365  15.232  -3.731  0.50 56.66 LIG 0.67  C 
ATOM     17  NH2 ARG B   3       2.227  14.880  -3.142  0.50 56.73 LIG-0.23  N 
ATOM     18  NH1 ARG B   3       4.519  14.784  -3.246  0.50 56.69 LIG-0.23  N 
ATOM     19 22HH ARG B   3       2.240  14.364  -2.453  0.50 56.73 LIG 0.17  HD
ATOM     20 21HH ARG B   3       1.477  15.168  -3.448  0.50 56.73 LIG 0.17  HD
ATOM     21 12HH ARG B   3       4.525  14.268  -2.558  0.50 56.69 LIG 0.17  HD
ATOM     22 11HH ARG B   3       5.259  15.010  -3.621  0.50 56.69 LIG 0.17  HD
ATOM     23 HE   ARG B   3       2.555  16.294  -5.066  0.50 56.60 LIG 0.18  HD
ENDBRANCH 14 15
ENDBRANCH 13 14
ENDBRANCH 12 13
ENDBRANCH 1 12
BRANCH 1 24
ATOM     24  N   ARG B   3       4.225  20.118  -7.682  0.50 56.75 LIG-0.35  N 
ATOM     25  C   ILE B   2       3.483  20.093  -8.781  0.50 56.81 LIG 0.24  C 
ATOM     26 O    ILE B   2       2.294  20.379  -8.771  0.50 56.81 LIG-0.27  OA
ATOM     27 H    ARG B   3       5.084  20.092  -7.672  0.50 56.75 LIG 0.16  HD
BRANCH 25 28
ATOM     28  CA  ILE B   2       4.178  19.680 -10.078  0.50 56.86 LIG 0.18  C 
BRANCH 28 29
ATOM     29  N   ILE B   2       3.413  18.605 -10.699  0.50 56.91 LIG-0.35  N 
ATOM     30 H    ILE B   2       3.055  18.818 -11.451  0.50 56.91 LIG 0.16  HD
ATOM     31  C   ALA B   1       3.287  17.407 -10.139  0.50 56.95 LIG 0.25  C 
ATOM     32 O    ALA B   1       3.789  17.116  -9.053  0.50 56.96 LIG-0.27  OA
BRANCH 31 33
ATOM     33  CA  ALA B   1       2.466  16.384 -10.921  0.50 56.96 LIG 0.27  C 
ATOM     34  CB  ALA B   1       3.072  16.160 -12.298  0.50 56.98 LIG 0.05  C 
BRANCH 33 35
ATOM     35  N   ALA B   1       1.052  16.834 -11.050  0.50 56.97 LIG-0.07  N 
ATOM     36 H1   ALA B   1       0.720  16.550 -11.826  0.50 56.97 LIG 0.28  HD
ATOM     37 H3   ALA B   1       1.019  17.722 -11.021  0.50 56.97 LIG 0.28  HD
ATOM     38 H2   ALA B   1       0.571  16.498 -10.381  0.50 56.97 LIG 0.28  HD
ENDBRANCH 33 35
ENDBRANCH 31 33
ENDBRANCH 28 29
BRANCH 28 39
ATOM     39  CB  ILE B   2       4.291  20.870 -11.061  0.50 56.87 LIG 0.01  C 
ATOM     40  CG2 ILE B   2       4.150  22.218 -10.341  1.00 56.86 LIG 0.01  C 
BRANCH 39 41
ATOM     41  CG1 ILE B   2       5.603  20.782 -11.862  1.00 56.91 LIG 0.00  C 
ATOM     42  CD1 ILE B   2       6.453  19.540 -11.588  0.50 56.92 LIG 0.01  C 
ENDBRANCH 39 41
ENDBRANCH 28 39
ENDBRANCH 25 28
ENDBRANCH 1 24
TORSDOF 16
ENDMDL
