MODEL 1
USER: ADFR SOLUTION from run 105
USER: SCORE 20.619584 LL:  -5.417 LR: -16.821 RR:   0.000 FEB: -10.258
USER: RMSD 1.958671
USER: SEED 104
USER: STATUS 1 or 2 clusters left
USER: GENES 24
USER: genes 0 Translation |==|  0.52277 0.49000 0.51236
USER: genes 1 Rotation |==|  0.51514 0.52325 0.51875 0.99888
USER: genes 2 Torsion [CB]-CA--N-[C] |==|  0.43472
USER: genes 3 Torsion [N]-C--CA-[N] |==|  0.22232
USER: genes 4 Torsion [C]-CA--CB-[CG] |==|  0.69612
USER: genes 5 Torsion [CA]-CB--CG-[CD] |==|  0.74424
USER: genes 6 Torsion [CB]-CG--CD-[OE1] |==|  0.90105
USER: genes 7 Torsion [C]-CA--N-[C] |==|  0.76488
USER: genes 8 Torsion [N]-C--CA-[N] |==|  0.00695
USER: genes 9 Torsion [C]-CA--N-[H2] |==|  0.19344
USER: genes 10 Torsion [C]-CA--CB-[CG] |==|  0.78764
USER: genes 11 Torsion [CA]-CB--CG-[OD1] |==|  0.01037
USER: genes 12 Torsion [N]-CA--C-[N] |==|  0.44898
USER: genes 13 Torsion [C]-N--CA-[C] |==|  0.66933
USER: genes 14 Torsion [N]-CA--C-[N] |==|  0.32439
USER: genes 15 Torsion [C]-N--CA-[C] |==|  0.70469
USER: genes 16 Torsion [N]-CA--C-[O] |==|  0.93641
USER: genes 17 Torsion [N]-CA--CB-[CG] |==|  0.82673
USER: genes 18 Torsion [CA]-CB--CG-[CD2] |==|  0.46414
USER: genes 19 Torsion [N]-CA--CB-[CG] |==|  0.47176
USER: genes 20 Torsion [CA]-CB--CG-[CD2] |==|  0.08131
USER: genes 21 Torsion [CE1]-CZ--OH-[HH] |==|  0.03996
USER: genes 22 Torsion [N]-CA--CB-[CG] |==|  0.79510
USER: genes 23 Torsion [CA]-CB--CG-[CD1] |==|  0.68276
ROOT
ATOM      1  CA  PHE S   4      44.913  54.080  53.541  1.00 21.41 LIG 0.18  C 
ENDROOT
BRANCH 1 2
ATOM      2  N   PHE S   4      44.656  53.643  54.907  1.00 22.57 LIG-0.35  N 
ATOM      3 H    PHE S   4      44.987  52.872  55.096  1.00 22.57 LIG 0.16  HD
ATOM      4  C   GLU S   3      43.968  54.380  55.778  1.00 26.46 LIG 0.24  C 
ATOM      5 O    GLU S   3      43.489  55.485  55.501  1.00 26.71 LIG-0.27  OA
BRANCH 4 6
ATOM      6  CA  GLU S   3      43.729  53.754  57.142  1.00 28.27 LIG 0.18  C 
BRANCH 6 7
ATOM      7  CB  GLU S   3      42.576  54.548  57.733  1.00 28.84 LIG 0.04  C 
BRANCH 7 8
ATOM      8  CG  GLU S   3      42.878  55.461  58.873  1.00 31.31 LIG 0.12  C 
BRANCH 8 9
ATOM      9  CD  GLU S   3      42.672  54.725  60.174  1.00 32.39 LIG 0.17  C 
ATOM     10 OE2  GLU S   3      43.449  54.969  61.098  1.00 38.97 LIG-0.65  OA
ATOM     11 OE1  GLU S   3      41.738  53.882  60.258  1.00 34.38 LIG-0.65  OA
ENDBRANCH 8 9
ENDBRANCH 7 8
ENDBRANCH 6 7
BRANCH 6 12
ATOM     12  N   GLU S   3      44.950  53.915  57.956  1.00 29.65 LIG-0.35  N 
ATOM     13 H    GLU S   3      44.933  54.604  58.470  1.00 29.65 LIG 0.16  HD
ATOM     14  C   ASN S   2      45.974  53.079  57.901  1.00 31.60 LIG 0.25  C 
ATOM     15 O    ASN S   2      45.928  51.986  57.353  1.00 31.89 LIG-0.27  OA
BRANCH 14 16
ATOM     16  CA  ASN S   2      47.266  53.585  58.566  1.00 33.47 LIG 0.28  C 
BRANCH 16 17
ATOM     17  N   ASN S   2      47.131  54.916  59.214  1.00 34.35 LIG-0.07  N 
ATOM     18 H2   ASN S   2      46.615  54.844  59.936  1.00 34.35 LIG 0.28  HD
ATOM     19 H3   ASN S   2      47.935  55.213  59.454  1.00 34.35 LIG 0.28  HD
ATOM     20 H1   ASN S   2      46.762  55.489  58.642  1.00 34.35 LIG 0.28  HD
ENDBRANCH 16 17
BRANCH 16 21
ATOM     21  CB  ASN S   2      47.831  52.599  59.572  1.00 34.36 LIG 0.14  C 
BRANCH 21 22
ATOM     22  CG  ASN S   2      47.047  52.614  60.879  1.00 36.60 LIG 0.22  C 
ATOM     23 OD1  ASN S   2      46.015  53.326  61.022  1.00 40.55 LIG-0.27  OA
ATOM     24  ND2 ASN S   2      47.520  51.837  61.842  1.00 40.03 LIG-0.37  N 
ATOM     25 22HD ASN S   2      48.228  51.366  61.707  1.00 40.03 LIG 0.16  HD
ATOM     26 21HD ASN S   2      47.121  51.803  62.603  1.00 40.03 LIG 0.16  HD
ENDBRANCH 21 22
ENDBRANCH 16 21
ENDBRANCH 14 16
ENDBRANCH 6 12
ENDBRANCH 4 6
ENDBRANCH 1 2
BRANCH 1 27
ATOM     27  C   PHE S   4      43.724  53.756  52.639  1.00 20.14 LIG 0.24  C 
ATOM     28 O    PHE S   4      42.904  52.899  52.947  1.00 18.43 LIG-0.27  OA
ATOM     29  N   TYR S   5      43.680  54.429  51.496  1.00 19.70 LIG-0.35  N 
ATOM     30 H    TYR S   5      44.240  55.048  51.288  1.00 19.70 LIG 0.16  HD
BRANCH 29 31
ATOM     31  CA  TYR S   5      42.666  54.179  50.472  1.00 19.15 LIG 0.18  C 
BRANCH 31 32
ATOM     32  C   TYR S   5      43.415  53.740  49.223  1.00 19.17 LIG 0.24  C 
ATOM     33  N   PHE S   6      43.164  52.505  48.801  1.00 19.00 LIG-0.34  N 
ATOM     34 H    PHE S   6      42.628  51.968  49.207  1.00 19.00 LIG 0.16  HD
ATOM     35 O    TYR S   5      44.235  54.483  48.677  1.00 19.39 LIG-0.27  OA
BRANCH 33 36
ATOM     36  CA  PHE S   6      43.770  51.931  47.605  1.00 19.20 LIG 0.19  C 
BRANCH 36 37
ATOM     37  C   PHE S   6      42.806  51.818  46.432  1.00 19.81 LIG 0.20  C 
ATOM     38 O    PHE S   6      41.580  51.781  46.633  1.00 18.53 LIG-0.65  OA
ATOM     39 OXT  PHE S   6      43.334  51.747  45.290  1.00 20.48 LIG-0.65  OA
ENDBRANCH 36 37
BRANCH 36 40
ATOM     40  CB  PHE S   6      44.347  50.553  47.941  1.00 19.81 LIG 0.07  C 
BRANCH 40 41
ATOM     41  CG  PHE S   6      45.465  50.587  48.990  1.00 21.45 LIG-0.06  A 
ATOM     42  CD2 PHE S   6      45.901  49.422  49.590  1.00 24.56 LIG 0.01  A 
ATOM     43  CE2 PHE S   6      46.920  49.448  50.553  1.00 25.95 LIG 0.00  A 
ATOM     44  CZ  PHE S   6      47.519  50.637  50.867  1.00 23.46 LIG 0.00  A 
ATOM     45  CE1 PHE S   6      47.117  51.799  50.259  1.00 24.74 LIG 0.00  A 
ATOM     46  CD1 PHE S   6      46.110  51.783  49.333  1.00 22.31 LIG 0.01  A 
ENDBRANCH 40 41
ENDBRANCH 36 40
ENDBRANCH 33 36
ENDBRANCH 31 32
BRANCH 31 47
ATOM     47  CB  TYR S   5      41.851  55.463  50.233  1.00 19.45 LIG 0.07  C 
BRANCH 47 48
ATOM     48  CG  TYR S   5      40.920  55.469  49.051  1.00 19.88 LIG-0.06  A 
ATOM     49  CD1 TYR S   5      40.593  56.637  48.372  1.00 18.15 LIG 0.01  A 
ATOM     50  CE1 TYR S   5      39.723  56.627  47.313  1.00 18.26 LIG 0.04  A 
ATOM     51  CZ  TYR S   5      39.174  55.425  46.891  1.00 18.69 LIG 0.07  A 
ATOM     52  CE2 TYR S   5      39.492  54.263  47.530  1.00 19.96 LIG 0.04  A 
ATOM     53  CD2 TYR S   5      40.356  54.284  48.614  1.00 21.89 LIG 0.01  A 
BRANCH 51 54
ATOM     54 OH   TYR S   5      38.306  55.391  45.835  1.00 21.24 LIG-0.36  OA
ATOM     55 HH   TYR S   5      38.345  56.118  45.416  1.00 21.24 LIG 0.22  HD
ENDBRANCH 51 54
ENDBRANCH 47 48
ENDBRANCH 31 47
ENDBRANCH 29 31
ENDBRANCH 1 27
BRANCH 1 56
ATOM     56  CB  PHE S   4      46.142  53.359  53.028  1.00 21.76 LIG 0.07  C 
BRANCH 56 57
ATOM     57  CG  PHE S   4      47.415  53.865  53.615  1.00 21.60 LIG-0.06  A 
ATOM     58  CD2 PHE S   4      47.678  53.706  54.957  1.00 23.13 LIG 0.01  A 
ATOM     59  CE2 PHE S   4      48.823  54.196  55.509  1.00 23.23 LIG 0.00  A 
ATOM     60  CZ  PHE S   4      49.761  54.782  54.714  1.00 22.51 LIG 0.00  A 
ATOM     61  CE1 PHE S   4      49.520  54.955  53.368  1.00 22.53 LIG 0.00  A 
ATOM     62  CD1 PHE S   4      48.350  54.499  52.815  1.00 22.71 LIG 0.01  A 
ENDBRANCH 56 57
ENDBRANCH 1 56
TORSDOF 22
ENDMDL
MODEL 2
USER: ADFR SOLUTION from run 90
USER: SCORE 19.163116 LL:  -4.975 LR: -15.581 RR:   0.000 FEB:  -9.019
USER: RMSD 1.641125
USER: SEED 89
USER: STATUS no improvement in best 2 clusters for 5 generations
USER: GENES 24
USER: genes 0 Translation |==|  0.51782 0.48716 0.51740
USER: genes 1 Rotation |==|  0.49870 0.50919 0.50774 0.99985
USER: genes 2 Torsion [CB]-CA--N-[C] |==|  0.42907
USER: genes 3 Torsion [N]-C--CA-[N] |==|  0.40167
USER: genes 4 Torsion [C]-CA--CB-[CG] |==|  0.65861
USER: genes 5 Torsion [CA]-CB--CG-[CD] |==|  0.78518
USER: genes 6 Torsion [CB]-CG--CD-[OE1] |==|  0.75860
USER: genes 7 Torsion [C]-CA--N-[C] |==|  0.80959
USER: genes 8 Torsion [N]-C--CA-[N] |==|  0.73808
USER: genes 9 Torsion [C]-CA--N-[H2] |==|  0.66307
USER: genes 10 Torsion [C]-CA--CB-[CG] |==|  0.21546
USER: genes 11 Torsion [CA]-CB--CG-[OD1] |==|  0.87472
USER: genes 12 Torsion [N]-CA--C-[N] |==|  0.45312
USER: genes 13 Torsion [C]-N--CA-[C] |==|  0.64966
USER: genes 14 Torsion [N]-CA--C-[N] |==|  0.35479
USER: genes 15 Torsion [C]-N--CA-[C] |==|  0.68204
USER: genes 16 Torsion [N]-CA--C-[O] |==|  0.93502
USER: genes 17 Torsion [N]-CA--CB-[CG] |==|  0.82750
USER: genes 18 Torsion [CA]-CB--CG-[CD2] |==|  0.46433
USER: genes 19 Torsion [N]-CA--CB-[CG] |==|  0.47114
USER: genes 20 Torsion [CA]-CB--CG-[CD2] |==|  0.57940
USER: genes 21 Torsion [CE1]-CZ--OH-[HH] |==|  0.70756
USER: genes 22 Torsion [N]-CA--CB-[CG] |==|  0.80847
USER: genes 23 Torsion [CA]-CB--CG-[CD1] |==|  0.65780
ROOT
ATOM      1  CA  PHE S   4      44.765  53.995  53.692  1.00 21.41 LIG 0.18  C 
ENDROOT
BRANCH 1 2
ATOM      2  N   PHE S   4      44.412  53.661  55.066  1.00 22.57 LIG-0.35  N 
ATOM      3 H    PHE S   4      44.674  52.880  55.314  1.00 22.57 LIG 0.16  HD
ATOM      4  C   GLU S   3      43.744  54.498  55.859  1.00 26.46 LIG 0.24  C 
ATOM      5 O    GLU S   3      43.366  55.617  55.496  1.00 26.71 LIG-0.27  OA
BRANCH 4 6
ATOM      6  CA  GLU S   3      43.395  53.974  57.242  1.00 28.27 LIG 0.18  C 
BRANCH 6 7
ATOM      7  CB  GLU S   3      41.965  53.476  57.115  1.00 28.84 LIG 0.04  C 
BRANCH 7 8
ATOM      8  CG  GLU S   3      40.946  54.059  58.033  1.00 31.31 LIG 0.12  C 
BRANCH 8 9
ATOM      9  CD  GLU S   3      41.087  53.438  59.401  1.00 32.39 LIG 0.17  C 
ATOM     10 OE2  GLU S   3      41.819  54.005  60.214  1.00 38.97 LIG-0.65  OA
ATOM     11 OE1  GLU S   3      40.479  52.362  59.650  1.00 34.38 LIG-0.65  OA
ENDBRANCH 8 9
ENDBRANCH 7 8
ENDBRANCH 6 7
BRANCH 6 12
ATOM     12  N   GLU S   3      43.480  55.091  58.205  1.00 29.65 LIG-0.35  N 
ATOM     13 H    GLU S   3      42.717  55.329  58.524  1.00 29.65 LIG 0.16  HD
ATOM     14  C   ASN S   2      44.619  55.670  58.546  1.00 31.60 LIG 0.25  C 
ATOM     15 O    ASN S   2      45.720  55.209  58.281  1.00 31.89 LIG-0.27  OA
BRANCH 14 16
ATOM     16  CA  ASN S   2      44.472  57.006  59.295  1.00 33.47 LIG 0.28  C 
BRANCH 16 17
ATOM     17  N   ASN S   2      44.531  58.203  58.415  1.00 34.35 LIG-0.07  N 
ATOM     18 H2   ASN S   2      45.201  58.729  58.673  1.00 34.35 LIG 0.28  HD
ATOM     19 H3   ASN S   2      44.664  57.947  57.573  1.00 34.35 LIG 0.28  HD
ATOM     20 H1   ASN S   2      43.764  58.651  58.470  1.00 34.35 LIG 0.28  HD
ENDBRANCH 16 17
BRANCH 16 21
ATOM     21  CB  ASN S   2      43.209  57.070  60.133  1.00 34.36 LIG 0.14  C 
BRANCH 21 22
ATOM     22  CG  ASN S   2      43.351  56.284  61.431  1.00 36.60 LIG 0.22  C 
ATOM     23 OD1  ASN S   2      43.859  55.129  61.451  1.00 40.55 LIG-0.27  OA
ATOM     24  ND2 ASN S   2      42.910  56.892  62.523  1.00 40.03 LIG-0.37  N 
ATOM     25 22HD ASN S   2      42.569  57.680  62.469  1.00 40.03 LIG 0.16  HD
ATOM     26 21HD ASN S   2      42.963  56.498  63.286  1.00 40.03 LIG 0.16  HD
ENDBRANCH 21 22
ENDBRANCH 16 21
ENDBRANCH 14 16
ENDBRANCH 6 12
ENDBRANCH 4 6
ENDBRANCH 1 2
BRANCH 1 27
ATOM     27  C   PHE S   4      43.615  53.660  52.744  1.00 20.14 LIG 0.24  C 
ATOM     28 O    PHE S   4      42.727  52.880  53.069  1.00 18.43 LIG-0.27  OA
ATOM     29  N   TYR S   5      43.681  54.232  51.549  1.00 19.70 LIG-0.35  N 
ATOM     30 H    TYR S   5      44.289  54.799  51.327  1.00 19.70 LIG 0.16  HD
BRANCH 29 31
ATOM     31  CA  TYR S   5      42.717  53.951  50.486  1.00 19.15 LIG 0.18  C 
BRANCH 31 32
ATOM     32  C   TYR S   5      43.529  53.533  49.269  1.00 19.17 LIG 0.24  C 
ATOM     33  N   PHE S   6      43.175  52.383  48.703  1.00 19.00 LIG-0.34  N 
ATOM     34 H    PHE S   6      42.541  51.886  49.005  1.00 19.00 LIG 0.16  HD
ATOM     35 O    TYR S   5      44.482  54.209  48.875  1.00 19.39 LIG-0.27  OA
BRANCH 33 36
ATOM     36  CA  PHE S   6      43.824  51.845  47.514  1.00 19.20 LIG 0.19  C 
BRANCH 36 37
ATOM     37  C   PHE S   6      42.907  51.781  46.299  1.00 19.81 LIG 0.20  C 
ATOM     38 O    PHE S   6      41.674  51.740  46.450  1.00 18.53 LIG-0.65  OA
ATOM     39 OXT  PHE S   6      43.480  51.755  45.177  1.00 20.48 LIG-0.65  OA
ENDBRANCH 36 37
BRANCH 36 40
ATOM     40  CB  PHE S   6      44.376  50.451  47.824  1.00 19.81 LIG 0.07  C 
BRANCH 40 41
ATOM     41  CG  PHE S   6      45.446  50.437  48.922  1.00 21.45 LIG-0.06  A 
ATOM     42  CD2 PHE S   6      45.848  49.247  49.497  1.00 24.56 LIG 0.01  A 
ATOM     43  CE2 PHE S   6      46.823  49.230  50.504  1.00 25.95 LIG 0.00  A 
ATOM     44  CZ  PHE S   6      47.415  50.402  50.889  1.00 23.46 LIG 0.00  A 
ATOM     45  CE1 PHE S   6      47.047  51.589  50.308  1.00 24.74 LIG 0.00  A 
ATOM     46  CD1 PHE S   6      46.082  51.615  49.338  1.00 22.31 LIG 0.01  A 
ENDBRANCH 40 41
ENDBRANCH 36 40
ENDBRANCH 33 36
ENDBRANCH 31 32
BRANCH 31 47
ATOM     47  CB  TYR S   5      41.875  55.210  50.211  1.00 19.45 LIG 0.07  C 
BRANCH 47 48
ATOM     48  CG  TYR S   5      40.996  55.188  48.988  1.00 19.88 LIG-0.06  A 
ATOM     49  CD1 TYR S   5      40.476  54.006  48.472  1.00 18.15 LIG 0.01  A 
ATOM     50  CE1 TYR S   5      39.698  54.002  47.344  1.00 18.26 LIG 0.04  A 
ATOM     51  CZ  TYR S   5      39.401  55.202  46.715  1.00 18.69 LIG 0.07  A 
ATOM     52  CE2 TYR S   5      39.886  56.376  47.211  1.00 19.96 LIG 0.04  A 
ATOM     53  CD2 TYR S   5      40.690  56.370  48.340  1.00 21.89 LIG 0.01  A 
BRANCH 51 54
ATOM     54 OH   TYR S   5      38.624  55.222  45.590  1.00 21.24 LIG-0.36  OA
ATOM     55 HH   TYR S   5      39.108  55.362  44.918  1.00 21.24 LIG 0.22  HD
ENDBRANCH 51 54
ENDBRANCH 47 48
ENDBRANCH 31 47
ENDBRANCH 29 31
ENDBRANCH 1 27
BRANCH 1 56
ATOM     56  CB  PHE S   4      45.986  53.191  53.300  1.00 21.76 LIG 0.07  C 
BRANCH 56 57
ATOM     57  CG  PHE S   4      47.227  53.610  54.013  1.00 21.60 LIG-0.06  A 
ATOM     58  CD2 PHE S   4      47.276  53.608  55.390  1.00 23.13 LIG 0.01  A 
ATOM     59  CE2 PHE S   4      48.393  54.023  56.050  1.00 23.23 LIG 0.00  A 
ATOM     60  CZ  PHE S   4      49.506  54.370  55.347  1.00 22.51 LIG 0.00  A 
ATOM     61  CE1 PHE S   4      49.481  54.383  53.970  1.00 22.53 LIG 0.00  A 
ATOM     62  CD1 PHE S   4      48.345  54.005  53.299  1.00 22.71 LIG 0.01  A 
ENDBRANCH 56 57
ENDBRANCH 1 56
TORSDOF 22
ENDMDL
