MODEL 1
USER: ADFR SOLUTION from run 130
USER: SCORE 9.477477 LL:  -2.421 LR:  -7.056 RR:   0.000 FEB:  -4.371
USER: RMSD 4.213073
USER: SEED 129
USER: STATUS no improvement in best 23 clusters for 5 generations
USER: GENES 11
USER: genes 0 Translation |==|  0.49785 0.47211 0.60744
USER: genes 1 Rotation |==|  0.53231 0.31101 0.48722 0.96160
USER: genes 2 Torsion [N]-CA--C-[O] |==|  0.48968
USER: genes 3 Torsion [C]-N--CA-[CB] |==|  0.32099
USER: genes 4 Torsion [N]-CA--C-[OXT] |==|  0.93291
USER: genes 5 Torsion [N]-CA--CB-[CG] |==|  0.74781
USER: genes 6 Torsion [CA]-CB--CG-[CD1] |==|  0.88324
USER: genes 7 Torsion [N]-C--CA-[N] |==|  0.49935
USER: genes 8 Torsion [C]-CA--CB-[CG] |==|  0.36316
USER: genes 9 Torsion [CA]-CB--CG-[CD1] |==|  0.56939
USER: genes 10 Torsion [C]-CA--N-[H2] |==|  0.68763
ROOT
ATOM      1  C   TRP D   1      12.836 -11.657  38.063  1.00 35.88 LIG 0.25  C 
ATOM      2 O    TRP D   1      11.685 -11.705  37.496  1.00 38.57 LIG-0.27  OA
ATOM      3  N   PRO D   2      13.440 -10.663  38.585  1.00 34.89 LIG-0.34  N 
ATOM      4  CA  PRO D   2      12.867  -9.290  38.781  1.00 35.03 LIG 0.18  C 
ATOM      5  CB  PRO D   2      14.018  -8.603  39.460  1.00 35.34 LIG 0.04  C 
ATOM      6  CG  PRO D   2      14.563  -9.732  40.339  1.00 35.42 LIG 0.02  C 
ATOM      7  CD  PRO D   2      14.254 -11.056  39.724  1.00 35.14 LIG 0.13  C 
ENDROOT
BRANCH 4 8
ATOM      8  C   PRO D   2      12.296  -8.486  37.620  1.00 35.70 LIG 0.24  C 
ATOM      9 O    PRO D   2      11.761  -7.393  37.737  1.00 34.88 LIG-0.27  OA
ATOM     10  N   TRP D   3      12.493  -9.182  36.480  1.00 36.87 LIG-0.34  N 
ATOM     11 H    TRP D   3      13.042  -9.842  36.436  1.00 36.87 LIG 0.16  HD
BRANCH 10 12
ATOM     12  CA  TRP D   3      11.801  -8.911  35.171  1.00 37.56 LIG 0.19  C 
BRANCH 12 13
ATOM     13  C   TRP D   3      10.779  -9.893  34.486  1.00 38.92 LIG 0.20  C 
ATOM     14 OXT  TRP D   3      10.783 -11.148  34.720  1.00 41.38 LIG-0.65  OA
ATOM     15 O    TRP D   3       9.933  -9.348  33.624  1.00 40.06 LIG-0.65  OA
ENDBRANCH 12 13
BRANCH 12 16
ATOM     16  CB  TRP D   3      12.861  -8.459  34.099  1.00 36.55 LIG 0.08  C 
BRANCH 16 17
ATOM     17  CG  TRP D   3      13.036  -6.931  34.082  1.00 35.48 LIG-0.03  A 
ATOM     18  CD1 TRP D   3      12.022  -5.971  34.167  1.00 37.13 LIG 0.10  A 
ATOM     19  NE1 TRP D   3      12.569  -4.703  34.105  1.00 40.71 LIG-0.36  N 
ATOM     20 HE1  TRP D   3      12.123  -3.969  34.133  1.00 40.71 LIG 0.17  HD
ATOM     21  CE2 TRP D   3      13.940  -4.793  33.992  1.00 36.12 LIG 0.04  A 
ATOM     22  CD2 TRP D   3      14.280  -6.201  33.973  1.00 33.28 LIG-0.00  A 
ATOM     23  CZ2 TRP D   3      14.902  -3.755  33.885  1.00 34.49 LIG 0.03  A 
ATOM     24  CE3 TRP D   3      15.636  -6.589  33.826  1.00 31.46 LIG 0.01  A 
ATOM     25  CZ3 TRP D   3      16.616  -5.582  33.737  1.00 32.66 LIG 0.00  A 
ATOM     26  CH2 TRP D   3      16.237  -4.153  33.758  1.00 36.62 LIG 0.00  A 
ENDBRANCH 16 17
ENDBRANCH 12 16
ENDBRANCH 10 12
ENDBRANCH 4 8
BRANCH 1 27
ATOM     27  CA  TRP D   1      13.801 -12.879  37.965  1.00 34.78 LIG 0.28  C 
BRANCH 27 28
ATOM     28  CB  TRP D   1      15.052 -12.551  37.139  1.00 34.63 LIG 0.08  C 
BRANCH 28 29
ATOM     29  CG  TRP D   1      16.362 -12.969  37.872  1.00 37.87 LIG-0.03  A 
ATOM     30  CD1 TRP D   1      17.637 -12.434  37.695  1.00 40.68 LIG 0.10  A 
ATOM     31  NE1 TRP D   1      18.523 -13.038  38.564  1.00 42.18 LIG-0.36  N 
ATOM     32 HE1  TRP D   1      19.363 -12.862  38.624  1.00 42.18 LIG 0.17  HD
ATOM     33  CE2 TRP D   1      17.841 -13.976  39.325  1.00 41.11 LIG 0.04  A 
ATOM     34  CD2 TRP D   1      16.488 -13.962  38.913  1.00 38.74 LIG-0.00  A 
ATOM     35  CZ2 TRP D   1      18.318 -14.843  40.355  1.00 41.13 LIG 0.03  A 
ATOM     36  CE3 TRP D   1      15.575 -14.815  39.570  1.00 40.52 LIG 0.01  A 
ATOM     37  CZ3 TRP D   1      16.050 -15.681  40.588  1.00 41.02 LIG 0.00  A 
ATOM     38  CH2 TRP D   1      17.409 -15.675  40.970  1.00 39.74 LIG 0.00  A 
ENDBRANCH 28 29
ENDBRANCH 27 28
BRANCH 27 39
ATOM     39  N   TRP D   1      13.120 -14.079  37.357  1.00 33.45 LIG-0.07  N 
ATOM     40 H3   TRP D   1      12.314 -13.844  37.059  1.00 33.45 LIG 0.28  HD
ATOM     41 H2   TRP D   1      13.034 -14.717  37.973  1.00 33.45 LIG 0.28  HD
ATOM     42 H1   TRP D   1      13.608 -14.386  36.679  1.00 33.45 LIG 0.28  HD
ENDBRANCH 27 39
ENDBRANCH 1 27
TORSDOF 9
ENDMDL
MODEL 2
USER: ADFR SOLUTION from run 62
USER: SCORE 9.415685 LL:  -2.378 LR:  -7.038 RR:   0.000 FEB:  -4.353
USER: RMSD 4.443250
USER: SEED 61
USER: STATUS no improvement in best 11 clusters for 5 generations
USER: GENES 11
USER: genes 0 Translation |==|  0.48461 0.48953 0.59243
USER: genes 1 Rotation |==|  0.52712 0.25828 0.45960 0.93497
USER: genes 2 Torsion [N]-CA--C-[O] |==|  0.34920
USER: genes 3 Torsion [C]-N--CA-[CB] |==|  0.54747
USER: genes 4 Torsion [N]-CA--C-[OXT] |==|  0.89526
USER: genes 5 Torsion [N]-CA--CB-[CG] |==|  0.67544
USER: genes 6 Torsion [CA]-CB--CG-[CD1] |==|  0.24591
USER: genes 7 Torsion [N]-C--CA-[N] |==|  0.43499
USER: genes 8 Torsion [C]-CA--CB-[CG] |==|  0.31508
USER: genes 9 Torsion [CA]-CB--CG-[CD1] |==|  0.69765
USER: genes 10 Torsion [C]-CA--N-[H2] |==|  0.65644
ROOT
ATOM      1  C   TRP D   1      12.438 -11.134  37.613  1.00 35.88 LIG 0.25  C 
ATOM      2 O    TRP D   1      11.449 -11.029  36.801  1.00 38.57 LIG-0.27  OA
ATOM      3  N   PRO D   2      13.026 -10.230  38.295  1.00 34.89 LIG-0.34  N 
ATOM      4  CA  PRO D   2      12.595  -8.798  38.410  1.00 35.03 LIG 0.18  C 
ATOM      5  CB  PRO D   2      13.637  -8.270  39.355  1.00 35.34 LIG 0.04  C 
ATOM      6  CG  PRO D   2      13.826  -9.468  40.289  1.00 35.42 LIG 0.02  C 
ATOM      7  CD  PRO D   2      13.505 -10.735  39.571  1.00 35.14 LIG 0.13  C 
ENDROOT
BRANCH 4 8
ATOM      8  C   PRO D   2      12.406  -7.916  37.182  1.00 35.70 LIG 0.24  C 
ATOM      9 O    PRO D   2      11.382  -7.299  36.929  1.00 34.88 LIG-0.27  OA
ATOM     10  N   TRP D   3      13.544  -7.942  36.457  1.00 36.87 LIG-0.34  N 
ATOM     11 H    TRP D   3      14.287  -8.231  36.781  1.00 36.87 LIG 0.16  HD
BRANCH 10 12
ATOM     12  CA  TRP D   3      13.671  -7.486  35.028  1.00 37.56 LIG 0.19  C 
BRANCH 12 13
ATOM     13  C   TRP D   3      12.523  -7.593  33.957  1.00 38.92 LIG 0.20  C 
ATOM     14 OXT  TRP D   3      11.731  -8.593  33.907  1.00 41.38 LIG-0.65  OA
ATOM     15 O    TRP D   3      12.444  -6.599  33.083  1.00 40.06 LIG-0.65  OA
ENDBRANCH 12 13
BRANCH 12 16
ATOM     16  CB  TRP D   3      14.995  -8.064  34.406  1.00 36.55 LIG 0.08  C 
BRANCH 16 17
ATOM     17  CG  TRP D   3      15.972  -6.945  34.009  1.00 35.48 LIG-0.03  A 
ATOM     18  CD1 TRP D   3      16.947  -6.356  34.822  1.00 37.13 LIG 0.10  A 
ATOM     19  NE1 TRP D   3      17.619  -5.377  34.116  1.00 40.71 LIG-0.36  N 
ATOM     20 HE1  TRP D   3      18.252  -4.887  34.429  1.00 40.71 LIG 0.17  HD
ATOM     21  CE2 TRP D   3      17.120  -5.302  32.833  1.00 36.12 LIG 0.04  A 
ATOM     22  CD2 TRP D   3      16.064  -6.287  32.724  1.00 33.28 LIG-0.00  A 
ATOM     23  CZ2 TRP D   3      17.496  -4.438  31.772  1.00 34.49 LIG 0.03  A 
ATOM     24  CE3 TRP D   3      15.344  -6.406  31.507  1.00 31.46 LIG 0.01  A 
ATOM     25  CZ3 TRP D   3      15.707  -5.575  30.429  1.00 32.66 LIG 0.00  A 
ATOM     26  CH2 TRP D   3      16.789  -4.578  30.574  1.00 36.62 LIG 0.00  A 
ENDBRANCH 16 17
ENDBRANCH 12 16
ENDBRANCH 10 12
ENDBRANCH 4 8
BRANCH 1 27
ATOM     27  CA  TRP D   1      13.244 -12.468  37.687  1.00 34.78 LIG 0.28  C 
BRANCH 27 28
ATOM     28  CB  TRP D   1      14.419 -12.480  36.700  1.00 34.63 LIG 0.08  C 
BRANCH 28 29
ATOM     29  CG  TRP D   1      15.795 -12.485  37.430  1.00 37.87 LIG-0.03  A 
ATOM     30  CD1 TRP D   1      16.716 -11.442  37.506  1.00 40.68 LIG 0.10  A 
ATOM     31  NE1 TRP D   1      17.792 -11.821  38.284  1.00 42.18 LIG-0.36  N 
ATOM     32 HE1  TRP D   1      18.476 -11.333  38.462  1.00 42.18 LIG 0.17  HD
ATOM     33  CE2 TRP D   1      17.589 -13.118  38.733  1.00 41.11 LIG 0.04  A 
ATOM     34  CD2 TRP D   1      16.352 -13.565  38.213  1.00 38.74 LIG-0.00  A 
ATOM     35  CZ2 TRP D   1      18.409 -13.939  39.567  1.00 41.13 LIG 0.03  A 
ATOM     36  CE3 TRP D   1      15.902 -14.857  38.560  1.00 40.52 LIG 0.01  A 
ATOM     37  CZ3 TRP D   1      16.720 -15.674  39.381  1.00 41.02 LIG 0.00  A 
ATOM     38  CH2 TRP D   1      17.953 -15.199  39.879  1.00 39.74 LIG 0.00  A 
ENDBRANCH 28 29
ENDBRANCH 27 28
BRANCH 27 39
ATOM     39  N   TRP D   1      12.367 -13.664  37.410  1.00 33.45 LIG-0.07  N 
ATOM     40 H3   TRP D   1      11.525 -13.397  37.303  1.00 33.45 LIG 0.28  HD
ATOM     41 H2   TRP D   1      12.413 -14.232  38.094  1.00 33.45 LIG 0.28  HD
ATOM     42 H1   TRP D   1      12.644 -14.071  36.668  1.00 33.45 LIG 0.28  HD
ENDBRANCH 27 39
ENDBRANCH 1 27
TORSDOF 9
ENDMDL
MODEL 3
USER: ADFR SOLUTION from run 65
USER: SCORE 9.402753 LL:  -2.406 LR:  -6.997 RR:   0.000 FEB:  -4.312
USER: RMSD 4.101602
USER: SEED 64
USER: STATUS no improvement in best 9 clusters for 5 generations
USER: GENES 11
USER: genes 0 Translation |==|  0.50112 0.48373 0.58225
USER: genes 1 Rotation |==|  0.52054 0.33965 0.62287 0.95691
USER: genes 2 Torsion [N]-CA--C-[O] |==|  0.28864
USER: genes 3 Torsion [C]-N--CA-[CB] |==|  0.60013
USER: genes 4 Torsion [N]-CA--C-[OXT] |==|  0.86529
USER: genes 5 Torsion [N]-CA--CB-[CG] |==|  0.80395
USER: genes 6 Torsion [CA]-CB--CG-[CD1] |==|  0.82918
USER: genes 7 Torsion [N]-C--CA-[N] |==|  0.47462
USER: genes 8 Torsion [C]-CA--CB-[CG] |==|  0.44850
USER: genes 9 Torsion [CA]-CB--CG-[CD1] |==|  0.92922
USER: genes 10 Torsion [C]-CA--N-[H2] |==|  0.66226
ROOT
ATOM      1  C   TRP D   1      12.934 -11.308  37.307  1.00 35.88 LIG 0.25  C 
ATOM      2 O    TRP D   1      11.945 -12.024  36.909  1.00 38.57 LIG-0.27  OA
ATOM      3  N   PRO D   2      12.989 -10.052  37.521  1.00 34.89 LIG-0.34  N 
ATOM      4  CA  PRO D   2      11.830  -9.102  37.480  1.00 35.03 LIG 0.18  C 
ATOM      5  CB  PRO D   2      12.512  -7.814  37.847  1.00 35.34 LIG 0.04  C 
ATOM      6  CG  PRO D   2      13.533  -8.301  38.878  1.00 35.42 LIG 0.02  C 
ATOM      7  CD  PRO D   2      13.895  -9.724  38.610  1.00 35.14 LIG 0.13  C 
ENDROOT
BRANCH 4 8
ATOM      8  C   PRO D   2      10.940  -8.973  36.249  1.00 35.70 LIG 0.24  C 
ATOM      9 O    PRO D   2       9.818  -9.449  36.159  1.00 34.88 LIG-0.27  OA
ATOM     10  N   TRP D   3      11.603  -8.257  35.317  1.00 36.87 LIG-0.34  N 
ATOM     11 H    TRP D   3      12.298  -7.788  35.508  1.00 36.87 LIG 0.16  HD
BRANCH 10 12
ATOM     12  CA  TRP D   3      11.231  -8.180  33.860  1.00 37.56 LIG 0.19  C 
BRANCH 12 13
ATOM     13  C   TRP D   3      10.205  -9.143  33.153  1.00 38.92 LIG 0.20  C 
ATOM     14 OXT  TRP D   3      10.261 -10.411  33.287  1.00 41.38 LIG-0.65  OA
ATOM     15 O    TRP D   3       9.298  -8.563  32.380  1.00 40.06 LIG-0.65  OA
ENDBRANCH 12 13
BRANCH 12 16
ATOM     16  CB  TRP D   3      12.538  -8.107  32.986  1.00 36.55 LIG 0.08  C 
BRANCH 16 17
ATOM     17  CG  TRP D   3      13.250  -6.753  33.142  1.00 35.48 LIG-0.03  A 
ATOM     18  CD1 TRP D   3      12.736  -5.494  32.816  1.00 37.13 LIG 0.10  A 
ATOM     19  NE1 TRP D   3      13.677  -4.518  33.084  1.00 40.71 LIG-0.36  N 
ATOM     20 HE1  TRP D   3      13.569  -3.676  32.951  1.00 40.71 LIG 0.17  HD
ATOM     21  CE2 TRP D   3      14.817  -5.099  33.597  1.00 36.12 LIG 0.04  A 
ATOM     22  CD2 TRP D   3      14.586  -6.528  33.649  1.00 33.28 LIG-0.00  A 
ATOM     23  CZ2 TRP D   3      16.034  -4.489  33.998  1.00 34.49 LIG 0.03  A 
ATOM     24  CE3 TRP D   3      15.619  -7.385  34.109  1.00 31.46 LIG 0.01  A 
ATOM     25  CZ3 TRP D   3      16.831  -6.808  34.532  1.00 32.66 LIG 0.00  A 
ATOM     26  CH2 TRP D   3      17.037  -5.344  34.465  1.00 36.62 LIG 0.00  A 
ENDBRANCH 16 17
ENDBRANCH 12 16
ENDBRANCH 10 12
ENDBRANCH 4 8
BRANCH 1 27
ATOM     27  CA  TRP D   1      14.366 -11.924  37.362  1.00 34.78 LIG 0.28  C 
BRANCH 27 28
ATOM     28  CB  TRP D   1      15.241 -11.435  36.201  1.00 34.63 LIG 0.08  C 
BRANCH 28 29
ATOM     29  CG  TRP D   1      16.759 -11.652  36.481  1.00 37.87 LIG-0.03  A 
ATOM     30  CD1 TRP D   1      17.385 -11.737  37.723  1.00 40.68 LIG 0.10  A 
ATOM     31  NE1 TRP D   1      18.734 -11.981  37.552  1.00 42.18 LIG-0.36  N 
ATOM     32 HE1  TRP D   1      19.309 -12.068  38.185  1.00 42.18 LIG 0.17  HD
ATOM     33  CE2 TRP D   1      19.009 -12.063  36.196  1.00 41.11 LIG 0.04  A 
ATOM     34  CD2 TRP D   1      17.796 -11.856  35.497  1.00 38.74 LIG-0.00  A 
ATOM     35  CZ2 TRP D   1      20.246 -12.306  35.524  1.00 41.13 LIG 0.03  A 
ATOM     36  CE3 TRP D   1      17.811 -11.926  34.088  1.00 40.52 LIG 0.01  A 
ATOM     37  CZ3 TRP D   1      19.040 -12.161  33.421  1.00 41.02 LIG 0.00  A 
ATOM     38  CH2 TRP D   1      20.235 -12.356  34.149  1.00 39.74 LIG 0.00  A 
ENDBRANCH 28 29
ENDBRANCH 27 28
BRANCH 27 39
ATOM     39  N   TRP D   1      14.325 -13.432  37.336  1.00 33.45 LIG-0.07  N 
ATOM     40 H3   TRP D   1      13.478 -13.706  37.316  1.00 33.45 LIG 0.28  HD
ATOM     41 H2   TRP D   1      14.724 -13.753  38.064  1.00 33.45 LIG 0.28  HD
ATOM     42 H1   TRP D   1      14.749 -13.728  36.612  1.00 33.45 LIG 0.28  HD
ENDBRANCH 27 39
ENDBRANCH 1 27
TORSDOF 9
ENDMDL
MODEL 4
USER: ADFR SOLUTION from run 44
USER: SCORE 8.779192 LL:  -1.849 LR:  -6.931 RR:   0.000 FEB:  -4.246
USER: RMSD 4.964601
USER: SEED 43
USER: STATUS no improvement in best 16 clusters for 5 generations
USER: GENES 11
USER: genes 0 Translation |==|  0.50459 0.46034 0.58191
USER: genes 1 Rotation |==|  0.55907 0.33269 0.55777 0.96387
USER: genes 2 Torsion [N]-CA--C-[O] |==|  0.03972
USER: genes 3 Torsion [C]-N--CA-[CB] |==|  0.65500
USER: genes 4 Torsion [N]-CA--C-[OXT] |==|  0.76699
USER: genes 5 Torsion [N]-CA--CB-[CG] |==|  0.76275
USER: genes 6 Torsion [CA]-CB--CG-[CD1] |==|  0.04419
USER: genes 7 Torsion [N]-C--CA-[N] |==|  0.48082
USER: genes 8 Torsion [C]-CA--CB-[CG] |==|  0.37733
USER: genes 9 Torsion [CA]-CB--CG-[CD1] |==|  0.82184
USER: genes 10 Torsion [C]-CA--N-[H2] |==|  0.77899
ROOT
ATOM      1  C   TRP D   1      13.038 -12.010  37.297  1.00 35.88 LIG 0.25  C 
ATOM      2 O    TRP D   1      11.923 -12.413  36.803  1.00 38.57 LIG-0.27  OA
ATOM      3  N   PRO D   2      13.343 -10.871  37.784  1.00 34.89 LIG-0.34  N 
ATOM      4  CA  PRO D   2      12.394  -9.734  38.020  1.00 35.03 LIG 0.18  C 
ATOM      5  CB  PRO D   2      13.321  -8.720  38.628  1.00 35.34 LIG 0.04  C 
ATOM      6  CG  PRO D   2      14.234  -9.617  39.467  1.00 35.42 LIG 0.02  C 
ATOM      7  CD  PRO D   2      14.305 -10.982  38.868  1.00 35.14 LIG 0.13  C 
ENDROOT
BRANCH 4 8
ATOM      8  C   PRO D   2      11.536  -9.158  36.900  1.00 35.70 LIG 0.24  C 
ATOM      9 O    PRO D   2      11.355  -9.705  35.821  1.00 34.88 LIG-0.27  OA
ATOM     10  N   TRP D   3      11.031  -7.977  37.313  1.00 36.87 LIG-0.34  N 
ATOM     11 H    TRP D   3      11.032  -7.743  38.140  1.00 36.87 LIG 0.16  HD
BRANCH 10 12
ATOM     12  CA  TRP D   3      10.415  -6.939  36.414  1.00 37.56 LIG 0.19  C 
BRANCH 12 13
ATOM     13  C   TRP D   3      10.136  -7.145  34.879  1.00 38.92 LIG 0.20  C 
ATOM     14 OXT  TRP D   3      11.036  -6.958  33.994  1.00 41.38 LIG-0.65  OA
ATOM     15 O    TRP D   3       8.899  -7.492  34.551  1.00 40.06 LIG-0.65  OA
ENDBRANCH 12 13
BRANCH 12 16
ATOM     16  CB  TRP D   3      11.157  -5.565  36.611  1.00 36.55 LIG 0.08  C 
BRANCH 16 17
ATOM     17  CG  TRP D   3      10.575  -4.769  37.791  1.00 35.48 LIG-0.03  A 
ATOM     18  CD1 TRP D   3       9.750  -5.261  38.808  1.00 37.13 LIG 0.10  A 
ATOM     19  NE1 TRP D   3       9.421  -4.242  39.681  1.00 40.71 LIG-0.36  N 
ATOM     20 HE1  TRP D   3       8.918  -4.326  40.373  1.00 40.71 LIG 0.17  HD
ATOM     21  CE2 TRP D   3      10.022  -3.069  39.276  1.00 36.12 LIG 0.04  A 
ATOM     22  CD2 TRP D   3      10.768  -3.362  38.070  1.00 33.28 LIG-0.00  A 
ATOM     23  CZ2 TRP D   3       9.952  -1.777  39.858  1.00 34.49 LIG 0.03  A 
ATOM     24  CE3 TRP D   3      11.464  -2.318  37.409  1.00 31.46 LIG 0.01  A 
ATOM     25  CZ3 TRP D   3      11.430  -1.027  37.973  1.00 32.66 LIG 0.00  A 
ATOM     26  CH2 TRP D   3      10.657  -0.760  39.205  1.00 36.62 LIG 0.00  A 
ENDBRANCH 16 17
ENDBRANCH 12 16
ENDBRANCH 10 12
ENDBRANCH 4 8
BRANCH 1 27
ATOM     27  CA  TRP D   1      14.321 -12.883  37.135  1.00 34.78 LIG 0.28  C 
BRANCH 27 28
ATOM     28  CB  TRP D   1      15.290 -12.286  36.106  1.00 34.63 LIG 0.08  C 
BRANCH 28 29
ATOM     29  CG  TRP D   1      16.765 -12.318  36.606  1.00 37.87 LIG-0.03  A 
ATOM     30  CD1 TRP D   1      17.302 -11.641  37.701  1.00 40.68 LIG 0.10  A 
ATOM     31  NE1 TRP D   1      18.636 -11.967  37.844  1.00 42.18 LIG-0.36  N 
ATOM     32 HE1  TRP D   1      19.161 -11.662  38.453  1.00 42.18 LIG 0.17  HD
ATOM     33  CE2 TRP D   1      18.992 -12.864  36.848  1.00 41.11 LIG 0.04  A 
ATOM     34  CD2 TRP D   1      17.846 -13.101  36.053  1.00 38.74 LIG-0.00  A 
ATOM     35  CZ2 TRP D   1      20.247 -13.492  36.586  1.00 41.13 LIG 0.03  A 
ATOM     36  CE3 TRP D   1      17.946 -14.016  34.983  1.00 40.52 LIG 0.01  A 
ATOM     37  CZ3 TRP D   1      19.194 -14.634  34.719  1.00 41.02 LIG 0.00  A 
ATOM     38  CH2 TRP D   1      20.321 -14.370  35.528  1.00 39.74 LIG 0.00  A 
ENDBRANCH 28 29
ENDBRANCH 27 28
BRANCH 27 39
ATOM     39  N   TRP D   1      13.984 -14.294  36.721  1.00 33.45 LIG-0.07  N 
ATOM     40 H3   TRP D   1      13.330 -14.279  36.117  1.00 33.45 LIG 0.28  HD
ATOM     41 H2   TRP D   1      13.720 -14.759  37.433  1.00 33.45 LIG 0.28  HD
ATOM     42 H1   TRP D   1      14.704 -14.680  36.367  1.00 33.45 LIG 0.28  HD
ENDBRANCH 27 39
ENDBRANCH 1 27
TORSDOF 9
ENDMDL
MODEL 5
USER: ADFR SOLUTION from run 47
USER: SCORE 8.840521 LL:  -1.954 LR:  -6.886 RR:   0.000 FEB:  -4.202
USER: RMSD 4.039606
USER: SEED 46
USER: STATUS searching
USER: GENES 11
USER: genes 0 Translation |==|  0.56606 0.43041 0.62144
USER: genes 1 Rotation |==|  0.48546 0.43424 0.61262 0.98247
USER: genes 2 Torsion [N]-CA--C-[O] |==|  0.13510
USER: genes 3 Torsion [C]-N--CA-[CB] |==|  0.68879
USER: genes 4 Torsion [N]-CA--C-[OXT] |==|  0.68568
USER: genes 5 Torsion [N]-CA--CB-[CG] |==|  0.75052
USER: genes 6 Torsion [CA]-CB--CG-[CD1] |==|  0.86144
USER: genes 7 Torsion [N]-C--CA-[N] |==|  0.35124
USER: genes 8 Torsion [C]-CA--CB-[CG] |==|  0.33188
USER: genes 9 Torsion [CA]-CB--CG-[CD1] |==|  0.63404
USER: genes 10 Torsion [C]-CA--N-[H2] |==|  0.70065
ROOT
ATOM      1  C   TRP D   1      14.882 -12.908  38.483  1.00 35.88 LIG 0.25  C 
ATOM      2 O    TRP D   1      13.780 -13.555  38.602  1.00 38.57 LIG-0.27  OA
ATOM      3  N   PRO D   2      15.075 -11.651  38.380  1.00 34.89 LIG-0.34  N 
ATOM      4  CA  PRO D   2      14.026 -10.587  38.511  1.00 35.03 LIG 0.18  C 
ATOM      5  CB  PRO D   2      14.861  -9.351  38.335  1.00 35.34 LIG 0.04  C 
ATOM      6  CG  PRO D   2      16.150  -9.756  39.055  1.00 35.42 LIG 0.02  C 
ATOM      7  CD  PRO D   2      16.319 -11.238  39.009  1.00 35.14 LIG 0.13  C 
ENDROOT
BRANCH 4 8
ATOM      8  C   PRO D   2      12.772 -10.586  37.645  1.00 35.70 LIG 0.24  C 
ATOM      9 O    PRO D   2      12.056 -11.560  37.470  1.00 34.88 LIG-0.27  OA
ATOM     10  N   TRP D   3      12.610  -9.348  37.132  1.00 36.87 LIG-0.34  N 
ATOM     11 H    TRP D   3      13.028  -8.664  37.444  1.00 36.87 LIG 0.16  HD
BRANCH 10 12
ATOM     12  CA  TRP D   3      11.704  -9.001  35.981  1.00 37.56 LIG 0.19  C 
BRANCH 12 13
ATOM     13  C   TRP D   3      10.517  -9.906  35.480  1.00 38.92 LIG 0.20  C 
ATOM     14 OXT  TRP D   3      10.532 -10.475  34.337  1.00 41.38 LIG-0.65  OA
ATOM     15 O    TRP D   3       9.482 -10.018  36.300  1.00 40.06 LIG-0.65  OA
ENDBRANCH 12 13
BRANCH 12 16
ATOM     16  CB  TRP D   3      12.571  -8.576  34.738  1.00 36.55 LIG 0.08  C 
BRANCH 16 17
ATOM     17  CG  TRP D   3      12.850  -7.063  34.731  1.00 35.48 LIG-0.03  A 
ATOM     18  CD1 TRP D   3      11.911  -6.038  34.885  1.00 37.13 LIG 0.10  A 
ATOM     19  NE1 TRP D   3      12.540  -4.810  34.809  1.00 40.71 LIG-0.36  N 
ATOM     20 HE1  TRP D   3      12.147  -4.048  34.872  1.00 40.71 LIG 0.17  HD
ATOM     21  CE2 TRP D   3      13.893  -4.990  34.617  1.00 36.12 LIG 0.04  A 
ATOM     22  CD2 TRP D   3      14.133  -6.417  34.560  1.00 33.28 LIG-0.00  A 
ATOM     23  CZ2 TRP D   3      14.916  -4.018  34.468  1.00 34.49 LIG 0.03  A 
ATOM     24  CE3 TRP D   3      15.449  -6.894  34.332  1.00 31.46 LIG 0.01  A 
ATOM     25  CZ3 TRP D   3      16.490  -5.955  34.199  1.00 32.66 LIG 0.00  A 
ATOM     26  CH2 TRP D   3      16.211  -4.503  34.261  1.00 36.62 LIG 0.00  A 
ENDBRANCH 16 17
ENDBRANCH 12 16
ENDBRANCH 10 12
ENDBRANCH 4 8
BRANCH 1 27
ATOM     27  CA  TRP D   1      16.209 -13.678  38.201  1.00 34.78 LIG 0.28  C 
BRANCH 27 28
ATOM     28  CB  TRP D   1      16.139 -14.472  36.889  1.00 34.63 LIG 0.08  C 
BRANCH 28 29
ATOM     29  CG  TRP D   1      17.221 -14.009  35.868  1.00 37.87 LIG-0.03  A 
ATOM     30  CD1 TRP D   1      17.036 -13.702  34.521  1.00 40.68 LIG 0.10  A 
ATOM     31  NE1 TRP D   1      18.230 -13.285  33.967  1.00 42.18 LIG-0.36  N 
ATOM     32 HE1  TRP D   1      18.344 -13.049  33.148  1.00 42.18 LIG 0.17  HD
ATOM     33  CE2 TRP D   1      19.214 -13.309  34.944  1.00 41.11 LIG 0.04  A 
ATOM     34  CD2 TRP D   1      18.617 -13.762  36.144  1.00 38.74 LIG-0.00  A 
ATOM     35  CZ2 TRP D   1      20.597 -12.961  34.862  1.00 41.13 LIG 0.03  A 
ATOM     36  CE3 TRP D   1      19.416 -13.841  37.305  1.00 40.52 LIG 0.01  A 
ATOM     37  CZ3 TRP D   1      20.790 -13.502  37.221  1.00 41.02 LIG 0.00  A 
ATOM     38  CH2 TRP D   1      21.356 -13.059  36.006  1.00 39.74 LIG 0.00  A 
ENDBRANCH 28 29
ENDBRANCH 27 28
BRANCH 27 39
ATOM     39  N   TRP D   1      16.551 -14.627  39.323  1.00 33.45 LIG-0.07  N 
ATOM     40 H3   TRP D   1      15.850 -14.712  39.864  1.00 33.45 LIG 0.28  HD
ATOM     41 H2   TRP D   1      17.244 -14.307  39.782  1.00 33.45 LIG 0.28  HD
ATOM     42 H1   TRP D   1      16.763 -15.422  38.985  1.00 33.45 LIG 0.28  HD
ENDBRANCH 27 39
ENDBRANCH 1 27
TORSDOF 9
ENDMDL
MODEL 6
USER: ADFR SOLUTION from run 84
USER: SCORE 8.852732 LL:  -2.190 LR:  -6.662 RR:   0.000 FEB:  -3.978
USER: RMSD 3.650723
USER: SEED 83
USER: STATUS no improvement in best 11 clusters for 5 generations
USER: GENES 11
USER: genes 0 Translation |==|  0.49814 0.46949 0.58350
USER: genes 1 Rotation |==|  0.51504 0.38544 0.56786 0.98171
USER: genes 2 Torsion [N]-CA--C-[O] |==|  0.16688
USER: genes 3 Torsion [C]-N--CA-[CB] |==|  0.73115
USER: genes 4 Torsion [N]-CA--C-[OXT] |==|  0.59293
USER: genes 5 Torsion [N]-CA--CB-[CG] |==|  0.75422
USER: genes 6 Torsion [CA]-CB--CG-[CD1] |==|  0.79191
USER: genes 7 Torsion [N]-C--CA-[N] |==|  0.48336
USER: genes 8 Torsion [C]-CA--CB-[CG] |==|  0.40354
USER: genes 9 Torsion [CA]-CB--CG-[CD1] |==|  0.50815
USER: genes 10 Torsion [C]-CA--N-[H2] |==|  0.68310
ROOT
ATOM      1  C   TRP D   1      12.844 -11.735  37.345  1.00 35.88 LIG 0.25  C 
ATOM      2 O    TRP D   1      11.662 -12.204  37.169  1.00 38.57 LIG-0.27  OA
ATOM      3  N   PRO D   2      13.220 -10.529  37.516  1.00 34.89 LIG-0.34  N 
ATOM      4  CA  PRO D   2      12.316  -9.344  37.688  1.00 35.03 LIG 0.18  C 
ATOM      5  CB  PRO D   2      13.327  -8.249  37.883  1.00 35.34 LIG 0.04  C 
ATOM      6  CG  PRO D   2      14.400  -8.976  38.698  1.00 35.42 LIG 0.02  C 
ATOM      7  CD  PRO D   2      14.375 -10.436  38.394  1.00 35.14 LIG 0.13  C 
ENDROOT
BRANCH 4 8
ATOM      8  C   PRO D   2      11.250  -8.991  36.659  1.00 35.70 LIG 0.24  C 
ATOM      9 O    PRO D   2      10.330  -9.730  36.341  1.00 34.88 LIG-0.27  OA
ATOM     10  N   TRP D   3      11.504  -7.752  36.187  1.00 36.87 LIG-0.34  N 
ATOM     11 H    TRP D   3      12.042  -7.212  36.586  1.00 36.87 LIG 0.16  HD
BRANCH 10 12
ATOM     12  CA  TRP D   3      10.904  -7.162  34.940  1.00 37.56 LIG 0.19  C 
BRANCH 12 13
ATOM     13  C   TRP D   3       9.446  -7.461  34.427  1.00 38.92 LIG 0.20  C 
ATOM     14 OXT  TRP D   3       9.159  -7.504  33.185  1.00 41.38 LIG-0.65  OA
ATOM     15 O    TRP D   3       8.522  -7.632  35.362  1.00 40.06 LIG-0.65  OA
ENDBRANCH 12 13
BRANCH 12 16
ATOM     16  CB  TRP D   3      11.906  -7.339  33.739  1.00 36.55 LIG 0.08  C 
BRANCH 16 17
ATOM     17  CG  TRP D   3      12.887  -6.159  33.638  1.00 35.48 LIG-0.03  A 
ATOM     18  CD1 TRP D   3      12.605  -4.873  33.164  1.00 37.13 LIG 0.10  A 
ATOM     19  NE1 TRP D   3      13.745  -4.093  33.216  1.00 40.71 LIG-0.36  N 
ATOM     20 HE1  TRP D   3      13.795  -3.272  32.965  1.00 40.71 LIG 0.17  HD
ATOM     21  CE2 TRP D   3      14.791  -4.830  33.729  1.00 36.12 LIG 0.04  A 
ATOM     22  CD2 TRP D   3      14.285  -6.158  34.011  1.00 33.28 LIG-0.00  A 
ATOM     23  CZ2 TRP D   3      16.139  -4.445  33.947  1.00 34.49 LIG 0.03  A 
ATOM     24  CE3 TRP D   3      15.166  -7.146  34.520  1.00 31.46 LIG 0.01  A 
ATOM     25  CZ3 TRP D   3      16.505  -6.789  34.766  1.00 32.66 LIG 0.00  A 
ATOM     26  CH2 TRP D   3      16.992  -5.425  34.465  1.00 36.62 LIG 0.00  A 
ENDBRANCH 16 17
ENDBRANCH 12 16
ENDBRANCH 10 12
ENDBRANCH 4 8
BRANCH 1 27
ATOM     27  CA  TRP D   1      14.085 -12.655  37.125  1.00 34.78 LIG 0.28  C 
BRANCH 27 28
ATOM     28  CB  TRP D   1      14.841 -12.294  35.839  1.00 34.63 LIG 0.08  C 
BRANCH 28 29
ATOM     29  CG  TRP D   1      16.379 -12.493  35.990  1.00 37.87 LIG-0.03  A 
ATOM     30  CD1 TRP D   1      17.365 -12.209  35.047  1.00 40.68 LIG 0.10  A 
ATOM     31  NE1 TRP D   1      18.612 -12.478  35.577  1.00 42.18 LIG-0.36  N 
ATOM     32 HE1  TRP D   1      19.360 -12.376  35.167  1.00 42.18 LIG 0.17  HD
ATOM     33  CE2 TRP D   1      18.460 -12.938  36.876  1.00 41.11 LIG 0.04  A 
ATOM     34  CD2 TRP D   1      17.075 -12.965  37.165  1.00 38.74 LIG-0.00  A 
ATOM     35  CZ2 TRP D   1      19.447 -13.336  37.829  1.00 41.13 LIG 0.03  A 
ATOM     36  CE3 TRP D   1      16.664 -13.370  38.452  1.00 40.52 LIG 0.01  A 
ATOM     37  CZ3 TRP D   1      17.643 -13.771  39.395  1.00 41.02 LIG 0.00  A 
ATOM     38  CH2 TRP D   1      19.018 -13.739  39.073  1.00 39.74 LIG 0.00  A 
ENDBRANCH 28 29
ENDBRANCH 27 28
BRANCH 27 39
ATOM     39  N   TRP D   1      13.694 -14.111  37.063  1.00 33.45 LIG-0.07  N 
ATOM     40 H3   TRP D   1      12.807 -14.182  37.078  1.00 33.45 LIG 0.28  HD
ATOM     41 H2   TRP D   1      14.038 -14.541  37.763  1.00 33.45 LIG 0.28  HD
ATOM     42 H1   TRP D   1      14.007 -14.471  36.312  1.00 33.45 LIG 0.28  HD
ENDBRANCH 27 39
ENDBRANCH 1 27
TORSDOF 9
ENDMDL
MODEL 7
USER: ADFR SOLUTION from run 28
USER: SCORE 8.747866 LL:  -2.271 LR:  -6.477 RR:   0.000 FEB:  -3.792
USER: RMSD 4.147480
USER: SEED 27
USER: STATUS no improvement in best 24 clusters for 5 generations
USER: GENES 11
USER: genes 0 Translation |==|  0.48973 0.53086 0.59502
USER: genes 1 Rotation |==|  0.47895 0.34187 0.70238 0.92848
USER: genes 2 Torsion [N]-CA--C-[O] |==|  0.26419
USER: genes 3 Torsion [C]-N--CA-[CB] |==|  0.63971
USER: genes 4 Torsion [N]-CA--C-[OXT] |==|  0.85661
USER: genes 5 Torsion [N]-CA--CB-[CG] |==|  0.85709
USER: genes 6 Torsion [CA]-CB--CG-[CD1] |==|  0.82007
USER: genes 7 Torsion [N]-C--CA-[N] |==|  0.27396
USER: genes 8 Torsion [C]-CA--CB-[CG] |==|  0.72857
USER: genes 9 Torsion [CA]-CB--CG-[CD1] |==|  0.22727
USER: genes 10 Torsion [C]-CA--N-[H2] |==|  0.83822
ROOT
ATOM      1  C   TRP D   1      12.592  -9.894  37.691  1.00 35.88 LIG 0.25  C 
ATOM      2 O    TRP D   1      11.866 -10.924  37.444  1.00 38.57 LIG-0.27  OA
ATOM      3  N   PRO D   2      12.306  -8.657  37.575  1.00 34.89 LIG-0.34  N 
ATOM      4  CA  PRO D   2      10.958  -8.094  37.236  1.00 35.03 LIG 0.18  C 
ATOM      5  CB  PRO D   2      11.250  -6.621  37.289  1.00 35.34 LIG 0.04  C 
ATOM      6  CG  PRO D   2      12.235  -6.555  38.458  1.00 35.42 LIG 0.02  C 
ATOM      7  CD  PRO D   2      12.970  -7.848  38.585  1.00 35.14 LIG 0.13  C 
ENDROOT
BRANCH 4 8
ATOM      8  C   PRO D   2      10.212  -8.506  35.973  1.00 35.70 LIG 0.24  C 
ATOM      9 O    PRO D   2       9.366  -9.388  35.930  1.00 34.88 LIG-0.27  OA
ATOM     10  N   TRP D   3      10.643  -7.737  34.951  1.00 36.87 LIG-0.34  N 
ATOM     11 H    TRP D   3      11.088  -7.012  35.080  1.00 36.87 LIG 0.16  HD
BRANCH 10 12
ATOM     12  CA  TRP D   3      10.415  -8.028  33.493  1.00 37.56 LIG 0.19  C 
BRANCH 12 13
ATOM     13  C   TRP D   3       9.612  -9.269  32.949  1.00 38.92 LIG 0.20  C 
ATOM     14 OXT  TRP D   3       9.871 -10.461  33.323  1.00 41.38 LIG-0.65  OA
ATOM     15 O    TRP D   3       8.672  -9.009  32.052  1.00 40.06 LIG-0.65  OA
ENDBRANCH 12 13
BRANCH 12 16
ATOM     16  CB  TRP D   3      11.781  -7.934  32.716  1.00 36.55 LIG 0.08  C 
BRANCH 16 17
ATOM     17  CG  TRP D   3      12.509  -6.611  33.008  1.00 35.48 LIG-0.03  A 
ATOM     18  CD1 TRP D   3      12.074  -5.324  32.672  1.00 37.13 LIG 0.10  A 
ATOM     19  NE1 TRP D   3      13.005  -4.391  33.087  1.00 40.71 LIG-0.36  N 
ATOM     20 HE1  TRP D   3      12.938  -3.541  32.975  1.00 40.71 LIG 0.17  HD
ATOM     21  CE2 TRP D   3      14.058  -5.027  33.709  1.00 36.12 LIG 0.04  A 
ATOM     22  CD2 TRP D   3      13.781  -6.449  33.678  1.00 33.28 LIG-0.00  A 
ATOM     23  CZ2 TRP D   3      15.236  -4.473  34.274  1.00 34.49 LIG 0.03  A 
ATOM     24  CE3 TRP D   3      14.726  -7.355  34.223  1.00 31.46 LIG 0.01  A 
ATOM     25  CZ3 TRP D   3      15.895  -6.834  34.808  1.00 32.66 LIG 0.00  A 
ATOM     26  CH2 TRP D   3      16.150  -5.377  34.823  1.00 36.62 LIG 0.00  A 
ENDBRANCH 16 17
ENDBRANCH 12 16
ENDBRANCH 10 12
ENDBRANCH 4 8
BRANCH 1 27
ATOM     27  CA  TRP D   1      14.117 -10.067  37.971  1.00 34.78 LIG 0.28  C 
BRANCH 27 28
ATOM     28  CB  TRP D   1      14.708 -11.251  37.194  1.00 34.63 LIG 0.08  C 
BRANCH 28 29
ATOM     29  CG  TRP D   1      14.807 -12.535  38.072  1.00 37.87 LIG-0.03  A 
ATOM     30  CD1 TRP D   1      13.792 -13.447  38.353  1.00 40.68 LIG 0.10  A 
ATOM     31  NE1 TRP D   1      14.289 -14.477  39.128  1.00 42.18 LIG-0.36  N 
ATOM     32 HE1  TRP D   1      13.834 -15.147  39.418  1.00 42.18 LIG 0.17  HD
ATOM     33  CE2 TRP D   1      15.637 -14.255  39.362  1.00 41.11 LIG 0.04  A 
ATOM     34  CD2 TRP D   1      15.993 -13.046  38.720  1.00 38.74 LIG-0.00  A 
ATOM     35  CZ2 TRP D   1      16.581 -15.037  40.097  1.00 41.13 LIG 0.03  A 
ATOM     36  CE3 TRP D   1      17.336 -12.618  38.785  1.00 40.52 LIG 0.01  A 
ATOM     37  CZ3 TRP D   1      18.271 -13.391  39.520  1.00 41.02 LIG 0.00  A 
ATOM     38  CH2 TRP D   1      17.882 -14.590  40.155  1.00 39.74 LIG 0.00  A 
ENDBRANCH 28 29
ENDBRANCH 27 28
BRANCH 27 39
ATOM     39  N   TRP D   1      14.394 -10.266  39.440  1.00 33.45 LIG-0.07  N 
ATOM     40 H3   TRP D   1      13.993 -11.010  39.720  1.00 33.45 LIG 0.28  HD
ATOM     41 H2   TRP D   1      14.081  -9.570  39.899  1.00 33.45 LIG 0.28  HD
ATOM     42 H1   TRP D   1      15.271 -10.336  39.571  1.00 33.45 LIG 0.28  HD
ENDBRANCH 27 39
ENDBRANCH 1 27
TORSDOF 9
ENDMDL
MODEL 8
USER: ADFR SOLUTION from run 44
USER: SCORE 8.683417 LL:  -2.257 LR:  -6.427 RR:   0.000 FEB:  -3.742
USER: RMSD 3.940719
USER: SEED 43
USER: STATUS no improvement in best 16 clusters for 5 generations
USER: GENES 11
USER: genes 0 Translation |==|  0.49499 0.46035 0.58007
USER: genes 1 Rotation |==|  0.56067 0.32680 0.55501 0.96184
USER: genes 2 Torsion [N]-CA--C-[O] |==|  0.20590
USER: genes 3 Torsion [C]-N--CA-[CB] |==|  0.54045
USER: genes 4 Torsion [N]-CA--C-[OXT] |==|  0.88887
USER: genes 5 Torsion [N]-CA--CB-[CG] |==|  0.15836
USER: genes 6 Torsion [CA]-CB--CG-[CD1] |==|  0.93792
USER: genes 7 Torsion [N]-C--CA-[N] |==|  0.48306
USER: genes 8 Torsion [C]-CA--CB-[CG] |==|  0.36527
USER: genes 9 Torsion [CA]-CB--CG-[CD1] |==|  0.76244
USER: genes 10 Torsion [C]-CA--N-[H2] |==|  0.77648
ROOT
ATOM      1  C   TRP D   1      12.750 -12.010  37.242  1.00 35.88 LIG 0.25  C 
ATOM      2 O    TRP D   1      11.643 -12.395  36.718  1.00 38.57 LIG-0.27  OA
ATOM      3  N   PRO D   2      13.055 -10.880  37.751  1.00 34.89 LIG-0.34  N 
ATOM      4  CA  PRO D   2      12.112  -9.737  37.981  1.00 35.03 LIG 0.18  C 
ATOM      5  CB  PRO D   2      13.035  -8.740  38.623  1.00 35.34 LIG 0.04  C 
ATOM      6  CG  PRO D   2      13.921  -9.657  39.470  1.00 35.42 LIG 0.02  C 
ATOM      7  CD  PRO D   2      13.991 -11.015  38.855  1.00 35.14 LIG 0.13  C 
ENDROOT
BRANCH 4 8
ATOM      8  C   PRO D   2      11.286  -9.138  36.849  1.00 35.70 LIG 0.24  C 
ATOM      9 O    PRO D   2      10.308  -9.677  36.351  1.00 34.88 LIG-0.27  OA
ATOM     10  N   TRP D   3      11.818  -7.942  36.519  1.00 36.87 LIG-0.34  N 
ATOM     11 H    TRP D   3      12.376  -7.533  37.029  1.00 36.87 LIG 0.16  HD
BRANCH 10 12
ATOM     12  CA  TRP D   3      11.519  -7.183  35.254  1.00 37.56 LIG 0.19  C 
BRANCH 12 13
ATOM     13  C   TRP D   3      11.238  -7.855  33.859  1.00 38.92 LIG 0.20  C 
ATOM     14 OXT  TRP D   3      11.893  -8.871  33.451  1.00 41.38 LIG-0.65  OA
ATOM     15 O    TRP D   3      10.301  -7.285  33.113  1.00 40.06 LIG-0.65  OA
ENDBRANCH 12 13
BRANCH 12 16
ATOM     16  CB  TRP D   3      12.588  -6.045  35.058  1.00 36.55 LIG 0.08  C 
BRANCH 16 17
ATOM     17  CG  TRP D   3      14.019  -6.609  35.027  1.00 35.48 LIG-0.03  A 
ATOM     18  CD1 TRP D   3      14.450  -7.826  35.565  1.00 37.13 LIG 0.10  A 
ATOM     19  NE1 TRP D   3      15.808  -7.978  35.352  1.00 40.71 LIG-0.36  N 
ATOM     20 HE1  TRP D   3      16.276  -8.652  35.607  1.00 40.71 LIG 0.17  HD
ATOM     21  CE2 TRP D   3      16.298  -6.886  34.668  1.00 36.12 LIG 0.04  A 
ATOM     22  CD2 TRP D   3      15.186  -5.986  34.443  1.00 33.28 LIG-0.00  A 
ATOM     23  CZ2 TRP D   3      17.625  -6.609  34.252  1.00 34.49 LIG 0.03  A 
ATOM     24  CE3 TRP D   3      15.412  -4.750  33.784  1.00 31.46 LIG 0.01  A 
ATOM     25  CZ3 TRP D   3      16.716  -4.455  33.341  1.00 32.66 LIG 0.00  A 
ATOM     26  CH2 TRP D   3      17.830  -5.395  33.588  1.00 36.62 LIG 0.00  A 
ENDBRANCH 16 17
ENDBRANCH 12 16
ENDBRANCH 10 12
ENDBRANCH 4 8
BRANCH 1 27
ATOM     27  CA  TRP D   1      14.027 -12.893  37.097  1.00 34.78 LIG 0.28  C 
BRANCH 27 28
ATOM     28  CB  TRP D   1      15.034 -12.282  36.113  1.00 34.63 LIG 0.08  C 
BRANCH 28 29
ATOM     29  CG  TRP D   1      16.477 -12.245  36.701  1.00 37.87 LIG-0.03  A 
ATOM     30  CD1 TRP D   1      17.033 -11.259  37.514  1.00 40.68 LIG 0.10  A 
ATOM     31  NE1 TRP D   1      18.321 -11.614  37.866  1.00 42.18 LIG-0.36  N 
ATOM     32 HE1  TRP D   1      18.848 -11.150  38.362  1.00 42.18 LIG 0.17  HD
ATOM     33  CE2 TRP D   1      18.624 -12.839  37.292  1.00 41.11 LIG 0.04  A 
ATOM     34  CD2 TRP D   1      17.494 -13.260  36.552  1.00 38.74 LIG-0.00  A 
ATOM     35  CZ2 TRP D   1      19.820 -13.617  37.370  1.00 41.13 LIG 0.03  A 
ATOM     36  CE3 TRP D   1      17.545 -14.508  35.896  1.00 40.52 LIG 0.01  A 
ATOM     37  CZ3 TRP D   1      18.735 -15.277  35.968  1.00 41.02 LIG 0.00  A 
ATOM     38  CH2 TRP D   1      19.848 -14.825  36.710  1.00 39.74 LIG 0.00  A 
ENDBRANCH 28 29
ENDBRANCH 27 28
BRANCH 27 39
ATOM     39  N   TRP D   1      13.689 -14.290  36.638  1.00 33.45 LIG-0.07  N 
ATOM     40 H3   TRP D   1      13.044 -14.253  36.025  1.00 33.45 LIG 0.28  HD
ATOM     41 H2   TRP D   1      13.410 -14.772  37.332  1.00 33.45 LIG 0.28  HD
ATOM     42 H1   TRP D   1      14.411 -14.670  36.284  1.00 33.45 LIG 0.28  HD
ENDBRANCH 27 39
ENDBRANCH 1 27
TORSDOF 9
ENDMDL
MODEL 9
USER: ADFR SOLUTION from run 14
USER: SCORE 8.513154 LL:  -2.218 LR:  -6.295 RR:   0.000 FEB:  -3.611
USER: RMSD 3.744731
USER: SEED 376047
USER: STATUS no improvement in best 13 clusters for 5 generations
USER: GENES 11
USER: genes 0 Translation |==|  0.50228 0.47386 0.60495
USER: genes 1 Rotation |==|  0.48201 0.32067 0.59865 0.95583
USER: genes 2 Torsion [N]-CA--C-[O] |==|  0.91536
USER: genes 3 Torsion [C]-N--CA-[CB] |==|  0.91957
USER: genes 4 Torsion [N]-CA--C-[OXT] |==|  0.06043
USER: genes 5 Torsion [N]-CA--CB-[CG] |==|  0.83517
USER: genes 6 Torsion [CA]-CB--CG-[CD1] |==|  0.96270
USER: genes 7 Torsion [N]-C--CA-[N] |==|  0.44029
USER: genes 8 Torsion [C]-CA--CB-[CG] |==|  0.43906
USER: genes 9 Torsion [CA]-CB--CG-[CD1] |==|  0.73061
USER: genes 10 Torsion [C]-CA--N-[H2] |==|  0.69000
ROOT
ATOM      1  C   TRP D   1      12.968 -11.604  37.989  1.00 35.88 LIG 0.25  C 
ATOM      2 O    TRP D   1      11.931 -12.216  37.544  1.00 38.57 LIG-0.27  OA
ATOM      3  N   PRO D   2      13.183 -10.352  38.102  1.00 34.89 LIG-0.34  N 
ATOM      4  CA  PRO D   2      12.182  -9.263  37.854  1.00 35.03 LIG 0.18  C 
ATOM      5  CB  PRO D   2      13.004  -8.050  38.185  1.00 35.34 LIG 0.04  C 
ATOM      6  CG  PRO D   2      13.838  -8.566  39.360  1.00 35.42 LIG 0.02  C 
ATOM      7  CD  PRO D   2      14.016 -10.044  39.253  1.00 35.14 LIG 0.13  C 
ENDROOT
BRANCH 4 8
ATOM      8  C   PRO D   2      11.446  -9.137  36.526  1.00 35.70 LIG 0.24  C 
ATOM      9 O    PRO D   2      11.908  -9.477  35.447  1.00 34.88 LIG-0.27  OA
ATOM     10  N   TRP D   3      10.229  -8.603  36.762  1.00 36.87 LIG-0.34  N 
ATOM     11 H    TRP D   3       9.889  -8.569  37.551  1.00 36.87 LIG 0.16  HD
BRANCH 10 12
ATOM     12  CA  TRP D   3       9.326  -8.012  35.713  1.00 37.56 LIG 0.19  C 
BRANCH 12 13
ATOM     13  C   TRP D   3       8.075  -8.747  35.101  1.00 38.92 LIG 0.20  C 
ATOM     14 OXT  TRP D   3       7.488  -9.706  35.704  1.00 41.38 LIG-0.65  OA
ATOM     15 O    TRP D   3       7.684  -8.335  33.903  1.00 40.06 LIG-0.65  OA
ENDBRANCH 12 13
BRANCH 12 16
ATOM     16  CB  TRP D   3      10.194  -7.432  34.536  1.00 36.55 LIG 0.08  C 
BRANCH 16 17
ATOM     17  CG  TRP D   3      11.163  -6.343  35.028  1.00 35.48 LIG-0.03  A 
ATOM     18  CD1 TRP D   3      11.134  -5.695  36.268  1.00 37.13 LIG 0.10  A 
ATOM     19  NE1 TRP D   3      12.158  -4.769  36.337  1.00 40.71 LIG-0.36  N 
ATOM     20 HE1  TRP D   3      12.317  -4.256  37.009  1.00 40.71 LIG 0.17  HD
ATOM     21  CE2 TRP D   3      12.885  -4.790  35.167  1.00 36.12 LIG 0.04  A 
ATOM     22  CD2 TRP D   3      12.281  -5.782  34.302  1.00 33.28 LIG-0.00  A 
ATOM     23  CZ2 TRP D   3      14.007  -4.005  34.792  1.00 34.49 LIG 0.03  A 
ATOM     24  CE3 TRP D   3      12.811  -5.991  33.003  1.00 31.46 LIG 0.01  A 
ATOM     25  CZ3 TRP D   3      13.937  -5.242  32.609  1.00 32.66 LIG 0.00  A 
ATOM     26  CH2 TRP D   3      14.530  -4.234  33.516  1.00 36.62 LIG 0.00  A 
ENDBRANCH 16 17
ENDBRANCH 12 16
ENDBRANCH 10 12
ENDBRANCH 4 8
BRANCH 1 27
ATOM     27  CA  TRP D   1      14.285 -12.399  38.253  1.00 34.78 LIG 0.28  C 
BRANCH 27 28
ATOM     28  CB  TRP D   1      15.208 -12.396  37.026  1.00 34.63 LIG 0.08  C 
BRANCH 28 29
ATOM     29  CG  TRP D   1      16.691 -12.680  37.411  1.00 37.87 LIG-0.03  A 
ATOM     30  CD1 TRP D   1      17.703 -11.745  37.621  1.00 40.68 LIG 0.10  A 
ATOM     31  NE1 TRP D   1      18.866 -12.390  37.993  1.00 42.18 LIG-0.36  N 
ATOM     32 HE1  TRP D   1      19.615 -12.006  38.170  1.00 42.18 LIG 0.17  HD
ATOM     33  CE2 TRP D   1      18.631 -13.756  38.035  1.00 41.11 LIG 0.04  A 
ATOM     34  CD2 TRP D   1      17.281 -13.972  37.671  1.00 38.74 LIG-0.00  A 
ATOM     35  CZ2 TRP D   1      19.514 -14.829  38.371  1.00 41.13 LIG 0.03  A 
ATOM     36  CE3 TRP D   1      16.787 -15.294  37.672  1.00 40.52 LIG 0.01  A 
ATOM     37  CZ3 TRP D   1      17.665 -16.359  37.998  1.00 41.02 LIG 0.00  A 
ATOM     38  CH2 TRP D   1      19.009 -16.109  38.351  1.00 39.74 LIG 0.00  A 
ENDBRANCH 28 29
ENDBRANCH 27 28
BRANCH 27 39
ATOM     39  N   TRP D   1      14.003 -13.829  38.643  1.00 33.45 LIG-0.07  N 
ATOM     40 H3   TRP D   1      13.137 -14.000  38.536  1.00 33.45 LIG 0.28  HD
ATOM     41 H2   TRP D   1      14.227 -13.954  39.496  1.00 33.45 LIG 0.28  HD
ATOM     42 H1   TRP D   1      14.480 -14.377  38.129  1.00 33.45 LIG 0.28  HD
ENDBRANCH 27 39
ENDBRANCH 1 27
TORSDOF 9
ENDMDL
MODEL 10
USER: ADFR SOLUTION from run 14
USER: SCORE 8.453869 LL:  -2.210 LR:  -6.244 RR:   0.000 FEB:  -3.559
USER: RMSD 4.780643
USER: SEED 376047
USER: STATUS no improvement in best 13 clusters for 5 generations
USER: GENES 11
USER: genes 0 Translation |==|  0.50385 0.46647 0.60057
USER: genes 1 Rotation |==|  0.49985 0.34450 0.55639 0.97185
USER: genes 2 Torsion [N]-CA--C-[O] |==|  0.94779
USER: genes 3 Torsion [C]-N--CA-[CB] |==|  0.71654
USER: genes 4 Torsion [N]-CA--C-[OXT] |==|  0.11927
USER: genes 5 Torsion [N]-CA--CB-[CG] |==|  0.79861
USER: genes 6 Torsion [CA]-CB--CG-[CD1] |==|  0.98630
USER: genes 7 Torsion [N]-C--CA-[N] |==|  0.32020
USER: genes 8 Torsion [C]-CA--CB-[CG] |==|  0.29722
USER: genes 9 Torsion [CA]-CB--CG-[CD1] |==|  0.40862
USER: genes 10 Torsion [C]-CA--N-[H2] |==|  0.85311
ROOT
ATOM      1  C   TRP D   1      13.016 -11.826  37.857  1.00 35.88 LIG 0.25  C 
ATOM      2 O    TRP D   1      11.856 -12.233  37.487  1.00 38.57 LIG-0.27  OA
ATOM      3  N   PRO D   2      13.427 -10.637  38.067  1.00 34.89 LIG-0.34  N 
ATOM      4  CA  PRO D   2      12.580  -9.400  38.057  1.00 35.03 LIG 0.18  C 
ATOM      5  CB  PRO D   2      13.606  -8.358  38.402  1.00 35.34 LIG 0.04  C 
ATOM      6  CG  PRO D   2      14.477  -9.118  39.406  1.00 35.42 LIG 0.02  C 
ATOM      7  CD  PRO D   2      14.417 -10.583  39.131  1.00 35.14 LIG 0.13  C 
ENDROOT
BRANCH 4 8
ATOM      8  C   PRO D   2      11.730  -9.019  36.851  1.00 35.70 LIG 0.24  C 
ATOM      9 O    PRO D   2      11.900  -9.458  35.723  1.00 34.88 LIG-0.27  OA
ATOM     10  N   TRP D   3      10.786  -8.142  37.253  1.00 36.87 LIG-0.34  N 
ATOM     11 H    TRP D   3      10.595  -8.025  38.083  1.00 36.87 LIG 0.16  HD
BRANCH 10 12
ATOM     12  CA  TRP D   3       9.965  -7.275  36.337  1.00 37.56 LIG 0.19  C 
BRANCH 12 13
ATOM     13  C   TRP D   3       9.582  -7.657  34.859  1.00 38.92 LIG 0.20  C 
ATOM     14 OXT  TRP D   3       9.195  -8.830  34.539  1.00 41.38 LIG-0.65  OA
ATOM     15 O    TRP D   3       9.717  -6.697  33.954  1.00 40.06 LIG-0.65  OA
ENDBRANCH 12 13
BRANCH 12 16
ATOM     16  CB  TRP D   3      10.536  -5.809  36.347  1.00 36.55 LIG 0.08  C 
BRANCH 16 17
ATOM     17  CG  TRP D   3      10.222  -5.085  37.667  1.00 35.48 LIG-0.03  A 
ATOM     18  CD1 TRP D   3       9.442  -5.569  38.722  1.00 37.13 LIG 0.10  A 
ATOM     19  NE1 TRP D   3       9.379  -4.626  39.730  1.00 40.71 LIG-0.36  N 
ATOM     20 HE1  TRP D   3       8.946  -4.717  40.467  1.00 40.71 LIG 0.17  HD
ATOM     21  CE2 TRP D   3      10.116  -3.515  39.377  1.00 36.12 LIG 0.04  A 
ATOM     22  CD2 TRP D   3      10.671  -3.768  38.063  1.00 33.28 LIG-0.00  A 
ATOM     23  CZ2 TRP D   3      10.320  -2.308  40.093  1.00 34.49 LIG 0.03  A 
ATOM     24  CE3 TRP D   3      11.453  -2.766  37.432  1.00 31.46 LIG 0.01  A 
ATOM     25  CZ3 TRP D   3      11.690  -1.564  38.126  1.00 32.66 LIG 0.00  A 
ATOM     26  CH2 TRP D   3      11.107  -1.337  39.467  1.00 36.62 LIG 0.00  A 
ENDBRANCH 16 17
ENDBRANCH 12 16
ENDBRANCH 10 12
ENDBRANCH 4 8
BRANCH 1 27
ATOM     27  CA  TRP D   1      14.219 -12.819  37.873  1.00 34.78 LIG 0.28  C 
BRANCH 27 28
ATOM     28  CB  TRP D   1      14.323 -13.609  36.562  1.00 34.63 LIG 0.08  C 
BRANCH 28 29
ATOM     29  CG  TRP D   1      15.520 -13.131  35.686  1.00 37.87 LIG-0.03  A 
ATOM     30  CD1 TRP D   1      16.307 -13.905  34.834  1.00 40.68 LIG 0.10  A 
ATOM     31  NE1 TRP D   1      17.235 -13.105  34.198  1.00 42.18 LIG-0.36  N 
ATOM     32 HE1  TRP D   1      17.821 -13.375  33.631  1.00 42.18 LIG 0.17  HD
ATOM     33  CE2 TRP D   1      17.066 -11.794  34.620  1.00 41.11 LIG 0.04  A 
ATOM     34  CD2 TRP D   1      16.005 -11.777  35.555  1.00 38.74 LIG-0.00  A 
ATOM     35  CZ2 TRP D   1      17.774 -10.612  34.245  1.00 41.13 LIG 0.03  A 
ATOM     36  CE3 TRP D   1      15.617 -10.538  36.109  1.00 40.52 LIG 0.01  A 
ATOM     37  CZ3 TRP D   1      16.324  -9.366  35.742  1.00 41.02 LIG 0.00  A 
ATOM     38  CH2 TRP D   1      17.384  -9.419  34.810  1.00 39.74 LIG 0.00  A 
ENDBRANCH 28 29
ENDBRANCH 27 28
BRANCH 27 39
ATOM     39  N   TRP D   1      14.119 -13.795  39.020  1.00 33.45 LIG-0.07  N 
ATOM     40 H3   TRP D   1      13.424 -14.336  38.890  1.00 33.45 LIG 0.28  HD
ATOM     41 H2   TRP D   1      14.009 -13.349  39.782  1.00 33.45 LIG 0.28  HD
ATOM     42 H1   TRP D   1      14.865 -14.278  39.065  1.00 33.45 LIG 0.28  HD
ENDBRANCH 27 39
ENDBRANCH 1 27
TORSDOF 9
ENDMDL
MODEL 11
USER: ADFR SOLUTION from run 45
USER: SCORE 8.151522 LL:  -2.005 LR:  -6.147 RR:   0.000 FEB:  -3.462
USER: RMSD 4.367925
USER: SEED 44
USER: STATUS no improvement in best 20 clusters for 5 generations
USER: GENES 11
USER: genes 0 Translation |==|  0.48015 0.45883 0.58851
USER: genes 1 Rotation |==|  0.50788 0.31681 0.48247 0.96483
USER: genes 2 Torsion [N]-CA--C-[O] |==|  0.91076
USER: genes 3 Torsion [C]-N--CA-[CB] |==|  0.77724
USER: genes 4 Torsion [N]-CA--C-[OXT] |==|  0.81935
USER: genes 5 Torsion [N]-CA--CB-[CG] |==|  0.73599
USER: genes 6 Torsion [CA]-CB--CG-[CD1] |==|  0.08140
USER: genes 7 Torsion [N]-C--CA-[N] |==|  0.47539
USER: genes 8 Torsion [C]-CA--CB-[CG] |==|  0.44572
USER: genes 9 Torsion [CA]-CB--CG-[CD1] |==|  0.29732
USER: genes 10 Torsion [C]-CA--N-[H2] |==|  0.66709
ROOT
ATOM      1  C   TRP D   1      12.304 -12.055  37.495  1.00 35.88 LIG 0.25  C 
ATOM      2 O    TRP D   1      11.135 -12.087  36.966  1.00 38.57 LIG-0.27  OA
ATOM      3  N   PRO D   2      12.976 -11.055  37.915  1.00 34.89 LIG-0.34  N 
ATOM      4  CA  PRO D   2      12.481  -9.643  38.011  1.00 35.03 LIG 0.18  C 
ATOM      5  CB  PRO D   2      13.686  -8.965  38.598  1.00 35.34 LIG 0.04  C 
ATOM      6  CG  PRO D   2      14.200 -10.045  39.553  1.00 35.42 LIG 0.02  C 
ATOM      7  CD  PRO D   2      13.804 -11.397  39.060  1.00 35.14 LIG 0.13  C 
ENDROOT
BRANCH 4 8
ATOM      8  C   PRO D   2      11.915  -8.907  36.802  1.00 35.70 LIG 0.24  C 
ATOM      9 O    PRO D   2      12.286  -9.086  35.652  1.00 34.88 LIG-0.27  OA
ATOM     10  N   TRP D   3      10.959  -8.056  37.230  1.00 36.87 LIG-0.34  N 
ATOM     11 H    TRP D   3      10.609  -8.116  38.014  1.00 36.87 LIG 0.16  HD
BRANCH 10 12
ATOM     12  CA  TRP D   3      10.388  -6.920  36.424  1.00 37.56 LIG 0.19  C 
BRANCH 12 13
ATOM     13  C   TRP D   3       9.838  -7.061  34.956  1.00 38.92 LIG 0.20  C 
ATOM     14 OXT  TRP D   3      10.592  -7.370  33.974  1.00 41.38 LIG-0.65  OA
ATOM     15 O    TRP D   3       8.547  -6.807  34.789  1.00 40.06 LIG-0.65  OA
ENDBRANCH 12 13
BRANCH 12 16
ATOM     16  CB  TRP D   3      11.370  -5.691  36.477  1.00 36.55 LIG 0.08  C 
BRANCH 16 17
ATOM     17  CG  TRP D   3      10.976  -4.696  37.581  1.00 35.48 LIG-0.03  A 
ATOM     18  CD1 TRP D   3      10.324  -4.994  38.783  1.00 37.13 LIG 0.10  A 
ATOM     19  NE1 TRP D   3      10.129  -3.835  39.511  1.00 40.71 LIG-0.36  N 
ATOM     20 HE1  TRP D   3       9.741  -3.791  40.277  1.00 40.71 LIG 0.17  HD
ATOM     21  CE2 TRP D   3      10.652  -2.760  38.824  1.00 36.12 LIG 0.04  A 
ATOM     22  CD2 TRP D   3      11.201  -3.267  37.584  1.00 33.28 LIG-0.00  A 
ATOM     23  CZ2 TRP D   3      10.665  -1.387  39.182  1.00 34.49 LIG 0.03  A 
ATOM     24  CE3 TRP D   3      11.778  -2.363  36.656  1.00 31.46 LIG 0.01  A 
ATOM     25  CZ3 TRP D   3      11.824  -0.996  36.991  1.00 32.66 LIG 0.00  A 
ATOM     26  CH2 TRP D   3      11.253  -0.509  38.265  1.00 36.62 LIG 0.00  A 
ENDBRANCH 16 17
ENDBRANCH 12 16
ENDBRANCH 10 12
ENDBRANCH 4 8
BRANCH 1 27
ATOM     27  CA  TRP D   1      13.203 -13.331  37.474  1.00 34.78 LIG 0.28  C 
BRANCH 27 28
ATOM     28  CB  TRP D   1      14.322 -13.222  36.430  1.00 34.63 LIG 0.08  C 
BRANCH 28 29
ATOM     29  CG  TRP D   1      15.485 -14.219  36.714  1.00 37.87 LIG-0.03  A 
ATOM     30  CD1 TRP D   1      15.790 -15.384  36.012  1.00 40.68 LIG 0.10  A 
ATOM     31  NE1 TRP D   1      16.924 -15.967  36.542  1.00 42.18 LIG-0.36  N 
ATOM     32 HE1  TRP D   1      17.288 -16.694  36.263  1.00 42.18 LIG 0.17  HD
ATOM     33  CE2 TRP D   1      17.380 -15.191  37.597  1.00 41.11 LIG 0.04  A 
ATOM     34  CD2 TRP D   1      16.499 -14.092  37.735  1.00 38.74 LIG-0.00  A 
ATOM     35  CZ2 TRP D   1      18.512 -15.374  38.448  1.00 41.13 LIG 0.03  A 
ATOM     36  CE3 TRP D   1      16.773 -13.130  38.730  1.00 40.52 LIG 0.01  A 
ATOM     37  CZ3 TRP D   1      17.893 -13.316  39.579  1.00 41.02 LIG 0.00  A 
ATOM     38  CH2 TRP D   1      18.749 -14.428  39.419  1.00 39.74 LIG 0.00  A 
ENDBRANCH 28 29
ENDBRANCH 27 28
BRANCH 27 39
ATOM     39  N   TRP D   1      12.396 -14.574  37.191  1.00 33.45 LIG-0.07  N 
ATOM     40 H3   TRP D   1      11.540 -14.355  37.082  1.00 33.45 LIG 0.28  HD
ATOM     41 H2   TRP D   1      12.473 -15.141  37.873  1.00 33.45 LIG 0.28  HD
ATOM     42 H1   TRP D   1      12.698 -14.962  36.449  1.00 33.45 LIG 0.28  HD
ENDBRANCH 27 39
ENDBRANCH 1 27
TORSDOF 9
ENDMDL
MODEL 12
USER: ADFR SOLUTION from run 93
USER: SCORE 7.567205 LL:  -1.436 LR:  -6.131 RR:   0.000 FEB:  -3.446
USER: RMSD 3.979855
USER: SEED 92
USER: STATUS no improvement in best 5 clusters for 5 generations
USER: GENES 11
USER: genes 0 Translation |==|  0.49145 0.47419 0.57693
USER: genes 1 Rotation |==|  0.53303 0.37086 0.56185 0.97792
USER: genes 2 Torsion [N]-CA--C-[O] |==|  0.29880
USER: genes 3 Torsion [C]-N--CA-[CB] |==|  0.56233
USER: genes 4 Torsion [N]-CA--C-[OXT] |==|  0.89615
USER: genes 5 Torsion [N]-CA--CB-[CG] |==|  0.78341
USER: genes 6 Torsion [CA]-CB--CG-[CD1] |==|  0.80779
USER: genes 7 Torsion [N]-C--CA-[N] |==|  0.90397
USER: genes 8 Torsion [C]-CA--CB-[CG] |==|  0.23694
USER: genes 9 Torsion [CA]-CB--CG-[CD1] |==|  0.26632
USER: genes 10 Torsion [C]-CA--N-[H2] |==|  0.64496
ROOT
ATOM      1  C   TRP D   1      12.644 -11.594  37.148  1.00 35.88 LIG 0.25  C 
ATOM      2 O    TRP D   1      11.469 -12.037  36.876  1.00 38.57 LIG-0.27  OA
ATOM      3  N   PRO D   2      13.015 -10.409  37.437  1.00 34.89 LIG-0.34  N 
ATOM      4  CA  PRO D   2      12.110  -9.235  37.663  1.00 35.03 LIG 0.18  C 
ATOM      5  CB  PRO D   2      13.115  -8.169  37.997  1.00 35.34 LIG 0.04  C 
ATOM      6  CG  PRO D   2      14.142  -8.970  38.801  1.00 35.42 LIG 0.02  C 
ATOM      7  CD  PRO D   2      14.126 -10.400  38.375  1.00 35.14 LIG 0.13  C 
ENDROOT
BRANCH 4 8
ATOM      8  C   PRO D   2      11.097  -8.789  36.615  1.00 35.70 LIG 0.24  C 
ATOM      9 O    PRO D   2       9.889  -8.946  36.716  1.00 34.88 LIG-0.27  OA
ATOM     10  N   TRP D   3      11.764  -8.206  35.597  1.00 36.87 LIG-0.34  N 
ATOM     11 H    TRP D   3      12.582  -7.952  35.672  1.00 36.87 LIG 0.16  HD
BRANCH 10 12
ATOM     12  CA  TRP D   3      11.191  -7.930  34.233  1.00 37.56 LIG 0.19  C 
BRANCH 12 13
ATOM     13  C   TRP D   3      10.021  -8.754  33.577  1.00 38.92 LIG 0.20  C 
ATOM     14 OXT  TRP D   3       9.914 -10.017  33.725  1.00 41.38 LIG-0.65  OA
ATOM     15 O    TRP D   3       9.168  -8.066  32.832  1.00 40.06 LIG-0.65  OA
ENDBRANCH 12 13
BRANCH 12 16
ATOM     16  CB  TRP D   3      12.359  -7.795  33.188  1.00 36.55 LIG 0.08  C 
BRANCH 16 17
ATOM     17  CG  TRP D   3      13.046  -6.422  33.277  1.00 35.48 LIG-0.03  A 
ATOM     18  CD1 TRP D   3      12.498  -5.187  32.915  1.00 37.13 LIG 0.10  A 
ATOM     19  NE1 TRP D   3      13.424  -4.182  33.126  1.00 40.71 LIG-0.36  N 
ATOM     20 HE1  TRP D   3      13.295  -3.348  32.964  1.00 40.71 LIG 0.17  HD
ATOM     21  CE2 TRP D   3      14.586  -4.720  33.637  1.00 36.12 LIG 0.04  A 
ATOM     22  CD2 TRP D   3      14.387  -6.150  33.747  1.00 33.28 LIG-0.00  A 
ATOM     23  CZ2 TRP D   3      15.798  -4.070  33.988  1.00 34.49 LIG 0.03  A 
ATOM     24  CE3 TRP D   3      15.447  -6.968  34.216  1.00 31.46 LIG 0.01  A 
ATOM     25  CZ3 TRP D   3      16.655  -6.350  34.591  1.00 32.66 LIG 0.00  A 
ATOM     26  CH2 TRP D   3      16.828  -4.886  34.465  1.00 36.62 LIG 0.00  A 
ENDBRANCH 16 17
ENDBRANCH 12 16
ENDBRANCH 10 12
ENDBRANCH 4 8
BRANCH 1 27
ATOM     27  CA  TRP D   1      13.890 -12.503  36.913  1.00 34.78 LIG 0.28  C 
BRANCH 27 28
ATOM     28  CB  TRP D   1      14.395 -13.126  38.221  1.00 34.63 LIG 0.08  C 
BRANCH 28 29
ATOM     29  CG  TRP D   1      13.637 -14.441  38.572  1.00 37.87 LIG-0.03  A 
ATOM     30  CD1 TRP D   1      14.034 -15.748  38.292  1.00 40.68 LIG 0.10  A 
ATOM     31  NE1 TRP D   1      13.114 -16.638  38.809  1.00 42.18 LIG-0.36  N 
ATOM     32 HE1  TRP D   1      13.161 -17.495  38.749  1.00 42.18 LIG 0.17  HD
ATOM     33  CE2 TRP D   1      12.103 -15.929  39.439  1.00 41.11 LIG 0.04  A 
ATOM     34  CD2 TRP D   1      12.397 -14.551  39.305  1.00 38.74 LIG-0.00  A 
ATOM     35  CZ2 TRP D   1      10.942 -16.400  40.125  1.00 41.13 LIG 0.03  A 
ATOM     36  CE3 TRP D   1      11.523 -13.616  39.900  1.00 40.52 LIG 0.01  A 
ATOM     37  CZ3 TRP D   1      10.367 -14.083  40.574  1.00 41.02 LIG 0.00  A 
ATOM     38  CH2 TRP D   1      10.100 -15.466  40.684  1.00 39.74 LIG 0.00  A 
ENDBRANCH 28 29
ENDBRANCH 27 28
BRANCH 27 39
ATOM     39  N   TRP D   1      15.022 -11.740  36.271  1.00 33.45 LIG-0.07  N 
ATOM     40 H3   TRP D   1      14.738 -10.929  36.037  1.00 33.45 LIG 0.28  HD
ATOM     41 H2   TRP D   1      15.303 -12.176  35.548  1.00 33.45 LIG 0.28  HD
ATOM     42 H1   TRP D   1      15.694 -11.662  36.850  1.00 33.45 LIG 0.28  HD
ENDBRANCH 27 39
ENDBRANCH 1 27
TORSDOF 9
ENDMDL
MODEL 13
USER: ADFR SOLUTION from run 122
USER: SCORE 8.809853 LL:  -2.721 LR:  -6.089 RR:   0.000 FEB:  -3.404
USER: RMSD 3.699855
USER: SEED 121
USER: STATUS no improvement in best 14 clusters for 5 generations
USER: GENES 11
USER: genes 0 Translation |==|  0.44893 0.52977 0.56284
USER: genes 1 Rotation |==|  0.54267 0.32136 0.51350 0.96485
USER: genes 2 Torsion [N]-CA--C-[O] |==|  0.36802
USER: genes 3 Torsion [C]-N--CA-[CB] |==|  0.48254
USER: genes 4 Torsion [N]-CA--C-[OXT] |==|  0.93506
USER: genes 5 Torsion [N]-CA--CB-[CG] |==|  0.86664
USER: genes 6 Torsion [CA]-CB--CG-[CD1] |==|  0.88794
USER: genes 7 Torsion [N]-C--CA-[N] |==|  0.40145
USER: genes 8 Torsion [C]-CA--CB-[CG] |==|  0.44147
USER: genes 9 Torsion [CA]-CB--CG-[CD1] |==|  0.36199
USER: genes 10 Torsion [C]-CA--N-[H2] |==|  0.72129
ROOT
ATOM      1  C   TRP D   1      11.368  -9.927  36.725  1.00 35.88 LIG 0.25  C 
ATOM      2 O    TRP D   1      10.211 -10.109  36.199  1.00 38.57 LIG-0.27  OA
ATOM      3  N   PRO D   2      11.871  -8.868  37.226  1.00 34.89 LIG-0.34  N 
ATOM      4  CA  PRO D   2      11.151  -7.570  37.443  1.00 35.03 LIG 0.18  C 
ATOM      5  CB  PRO D   2      12.238  -6.752  38.082  1.00 35.34 LIG 0.04  C 
ATOM      6  CG  PRO D   2      12.940  -7.808  38.940  1.00 35.42 LIG 0.02  C 
ATOM      7  CD  PRO D   2      12.765  -9.161  38.335  1.00 35.14 LIG 0.13  C 
ENDROOT
BRANCH 4 8
ATOM      8  C   PRO D   2      10.451  -6.841  36.304  1.00 35.70 LIG 0.24  C 
ATOM      9 O    PRO D   2       9.315  -6.392  36.368  1.00 34.88 LIG-0.27  OA
ATOM     10  N   TRP D   3      11.294  -6.783  35.251  1.00 36.87 LIG-0.34  N 
ATOM     11 H    TRP D   3      12.136  -6.938  35.331  1.00 36.87 LIG 0.16  HD
BRANCH 10 12
ATOM     12  CA  TRP D   3      10.893  -6.450  33.839  1.00 37.56 LIG 0.19  C 
BRANCH 12 13
ATOM     13  C   TRP D   3       9.783  -7.216  33.027  1.00 38.92 LIG 0.20  C 
ATOM     14 OXT  TRP D   3       9.443  -8.414  33.305  1.00 41.38 LIG-0.65  OA
ATOM     15 O    TRP D   3       9.243  -6.557  32.011  1.00 40.06 LIG-0.65  OA
ENDBRANCH 12 13
BRANCH 12 16
ATOM     16  CB  TRP D   3      12.180  -6.328  32.941  1.00 36.55 LIG 0.08  C 
BRANCH 16 17
ATOM     17  CG  TRP D   3      13.252  -5.445  33.602  1.00 35.48 LIG-0.03  A 
ATOM     18  CD1 TRP D   3      13.039  -4.257  34.309  1.00 37.13 LIG 0.10  A 
ATOM     19  NE1 TRP D   3      14.248  -3.745  34.741  1.00 40.71 LIG-0.36  N 
ATOM     20 HE1  TRP D   3      14.346  -3.017  35.189  1.00 40.71 LIG 0.17  HD
ATOM     21  CE2 TRP D   3      15.274  -4.576  34.347  1.00 36.12 LIG 0.04  A 
ATOM     22  CD2 TRP D   3      14.680  -5.675  33.614  1.00 33.28 LIG-0.00  A 
ATOM     23  CZ2 TRP D   3      16.671  -4.440  34.556  1.00 34.49 LIG 0.03  A 
ATOM     24  CE3 TRP D   3      15.518  -6.674  33.056  1.00 31.46 LIG 0.01  A 
ATOM     25  CZ3 TRP D   3      16.907  -6.578  33.262  1.00 32.66 LIG 0.00  A 
ATOM     26  CH2 TRP D   3      17.483  -5.442  34.014  1.00 36.62 LIG 0.00  A 
ENDBRANCH 16 17
ENDBRANCH 12 16
ENDBRANCH 10 12
ENDBRANCH 4 8
BRANCH 1 27
ATOM     27  CA  TRP D   1      12.464 -11.029  36.593  1.00 34.78 LIG 0.28  C 
BRANCH 27 28
ATOM     28  CB  TRP D   1      13.119 -11.017  35.205  1.00 34.63 LIG 0.08  C 
BRANCH 28 29
ATOM     29  CG  TRP D   1      14.516 -11.707  35.213  1.00 37.87 LIG-0.03  A 
ATOM     30  CD1 TRP D   1      14.980 -12.687  34.337  1.00 40.68 LIG 0.10  A 
ATOM     31  NE1 TRP D   1      16.288 -13.008  34.642  1.00 42.18 LIG-0.36  N 
ATOM     32 HE1  TRP D   1      16.768 -13.590  34.231  1.00 42.18 LIG 0.17  HD
ATOM     33  CE2 TRP D   1      16.701 -12.240  35.720  1.00 41.11 LIG 0.04  A 
ATOM     34  CD2 TRP D   1      15.615 -11.418  36.105  1.00 38.74 LIG-0.00  A 
ATOM     35  CZ2 TRP D   1      17.962 -12.204  36.392  1.00 41.13 LIG 0.03  A 
ATOM     36  CE3 TRP D   1      15.801 -10.512  37.170  1.00 40.52 LIG 0.01  A 
ATOM     37  CZ3 TRP D   1      17.050 -10.482  37.841  1.00 41.02 LIG 0.00  A 
ATOM     38  CH2 TRP D   1      18.112 -11.320  37.436  1.00 39.74 LIG 0.00  A 
ENDBRANCH 28 29
ENDBRANCH 27 28
BRANCH 27 39
ATOM     39  N   TRP D   1      11.903 -12.406  36.850  1.00 33.45 LIG-0.07  N 
ATOM     40 H3   TRP D   1      11.019 -12.389  36.752  1.00 33.45 LIG 0.28  HD
ATOM     41 H2   TRP D   1      12.105 -12.659  37.680  1.00 33.45 LIG 0.28  HD
ATOM     42 H1   TRP D   1      12.255 -12.983  36.272  1.00 33.45 LIG 0.28  HD
ENDBRANCH 27 39
ENDBRANCH 1 27
TORSDOF 9
ENDMDL
MODEL 14
USER: ADFR SOLUTION from run 65
USER: SCORE 9.340617 LL:  -3.360 LR:  -5.981 RR:   0.000 FEB:  -3.296
USER: RMSD 4.270784
USER: SEED 64
USER: STATUS no improvement in best 9 clusters for 5 generations
USER: GENES 11
USER: genes 0 Translation |==|  0.50112 0.48374 0.58223
USER: genes 1 Rotation |==|  0.51737 0.35521 0.63481 0.95887
USER: genes 2 Torsion [N]-CA--C-[O] |==|  0.28932
USER: genes 3 Torsion [C]-N--CA-[CB] |==|  0.54414
USER: genes 4 Torsion [N]-CA--C-[OXT] |==|  0.88123
USER: genes 5 Torsion [N]-CA--CB-[CG] |==|  0.87153
USER: genes 6 Torsion [CA]-CB--CG-[CD1] |==|  0.97349
USER: genes 7 Torsion [N]-C--CA-[N] |==|  0.34603
USER: genes 8 Torsion [C]-CA--CB-[CG] |==|  0.32057
USER: genes 9 Torsion [CA]-CB--CG-[CD1] |==|  0.37154
USER: genes 10 Torsion [C]-CA--N-[H2] |==|  0.65174
ROOT
ATOM      1  C   TRP D   1      12.934 -11.308  37.307  1.00 35.88 LIG 0.25  C 
ATOM      2 O    TRP D   1      11.955 -12.078  36.994  1.00 38.57 LIG-0.27  OA
ATOM      3  N   PRO D   2      12.949 -10.043  37.465  1.00 34.89 LIG-0.34  N 
ATOM      4  CA  PRO D   2      11.750  -9.141  37.449  1.00 35.03 LIG 0.18  C 
ATOM      5  CB  PRO D   2      12.397  -7.813  37.723  1.00 35.34 LIG 0.04  C 
ATOM      6  CG  PRO D   2      13.491  -8.214  38.716  1.00 35.42 LIG 0.02  C 
ATOM      7  CD  PRO D   2      13.896  -9.632  38.488  1.00 35.14 LIG 0.13  C 
ENDROOT
BRANCH 4 8
ATOM      8  C   PRO D   2      10.792  -9.101  36.265  1.00 35.70 LIG 0.24  C 
ATOM      9 O    PRO D   2       9.685  -9.620  36.257  1.00 34.88 LIG-0.27  OA
ATOM     10  N   TRP D   3      11.375  -8.406  35.266  1.00 36.87 LIG-0.34  N 
ATOM     11 H    TRP D   3      12.061  -7.904  35.398  1.00 36.87 LIG 0.16  HD
BRANCH 10 12
ATOM     12  CA  TRP D   3      10.923  -8.409  33.831  1.00 37.56 LIG 0.19  C 
BRANCH 12 13
ATOM     13  C   TRP D   3      10.283  -9.650  33.104  1.00 38.92 LIG 0.20  C 
ATOM     14 OXT  TRP D   3      10.742 -10.832  33.247  1.00 41.38 LIG-0.65  OA
ATOM     15 O    TRP D   3       9.257  -9.394  32.305  1.00 40.06 LIG-0.65  OA
ENDBRANCH 12 13
BRANCH 12 16
ATOM     16  CB  TRP D   3      12.064  -7.825  32.918  1.00 36.55 LIG 0.08  C 
BRANCH 16 17
ATOM     17  CG  TRP D   3      12.656  -6.532  33.505  1.00 35.48 LIG-0.03  A 
ATOM     18  CD1 TRP D   3      12.159  -5.801  34.589  1.00 37.13 LIG 0.10  A 
ATOM     19  NE1 TRP D   3      12.954  -4.692  34.811  1.00 40.71 LIG-0.36  N 
ATOM     20 HE1  TRP D   3      12.823  -4.105  35.425  1.00 40.71 LIG 0.17  HD
ATOM     21  CE2 TRP D   3      13.987  -4.670  33.899  1.00 36.12 LIG 0.04  A 
ATOM     22  CD2 TRP D   3      13.833  -5.829  33.045  1.00 33.28 LIG-0.00  A 
ATOM     23  CZ2 TRP D   3      15.028  -3.717  33.745  1.00 34.49 LIG 0.03  A 
ATOM     24  CE3 TRP D   3      14.749  -6.038  31.982  1.00 31.46 LIG 0.01  A 
ATOM     25  CZ3 TRP D   3      15.804  -5.121  31.815  1.00 32.66 LIG 0.00  A 
ATOM     26  CH2 TRP D   3      15.933  -3.946  32.704  1.00 36.62 LIG 0.00  A 
ENDBRANCH 16 17
ENDBRANCH 12 16
ENDBRANCH 10 12
ENDBRANCH 4 8
BRANCH 1 27
ATOM     27  CA  TRP D   1      14.391 -11.864  37.308  1.00 34.78 LIG 0.28  C 
BRANCH 27 28
ATOM     28  CB  TRP D   1      14.786 -12.431  35.938  1.00 34.63 LIG 0.08  C 
BRANCH 28 29
ATOM     29  CG  TRP D   1      15.944 -11.620  35.283  1.00 37.87 LIG-0.03  A 
ATOM     30  CD1 TRP D   1      17.090 -12.126  34.671  1.00 40.68 LIG 0.10  A 
ATOM     31  NE1 TRP D   1      17.851 -11.089  34.170  1.00 42.18 LIG-0.36  N 
ATOM     32 HE1  TRP D   1      18.600 -11.174  33.756  1.00 42.18 LIG 0.17  HD
ATOM     33  CE2 TRP D   1      17.212  -9.888  34.442  1.00 41.11 LIG 0.04  A 
ATOM     34  CD2 TRP D   1      16.019 -10.184  35.142  1.00 38.74 LIG-0.00  A 
ATOM     35  CZ2 TRP D   1      17.598  -8.550  34.121  1.00 41.13 LIG 0.03  A 
ATOM     36  CE3 TRP D   1      15.169  -9.118  35.504  1.00 40.52 LIG 0.01  A 
ATOM     37  CZ3 TRP D   1      15.555  -7.790  35.192  1.00 41.02 LIG 0.00  A 
ATOM     38  CH2 TRP D   1      16.757  -7.528  34.498  1.00 39.74 LIG 0.00  A 
ENDBRANCH 28 29
ENDBRANCH 27 28
BRANCH 27 39
ATOM     39  N   TRP D   1      14.575 -12.942  38.349  1.00 33.45 LIG-0.07  N 
ATOM     40 H3   TRP D   1      13.832 -13.016  38.833  1.00 33.45 LIG 0.28  HD
ATOM     41 H2   TRP D   1      15.256 -12.729  38.881  1.00 33.45 LIG 0.28  HD
ATOM     42 H1   TRP D   1      14.744 -13.717  37.946  1.00 33.45 LIG 0.28  HD
ENDBRANCH 27 39
ENDBRANCH 1 27
TORSDOF 9
ENDMDL
MODEL 15
USER: ADFR SOLUTION from run 47
USER: SCORE 9.465073 LL:  -3.490 LR:  -5.975 RR:   0.000 FEB:  -3.290
USER: RMSD 3.712284
USER: SEED 46
USER: STATUS searching
USER: GENES 11
USER: genes 0 Translation |==|  0.56606 0.43041 0.62144
USER: genes 1 Rotation |==|  0.48546 0.43424 0.61262 0.98247
USER: genes 2 Torsion [N]-CA--C-[O] |==|  0.13510
USER: genes 3 Torsion [C]-N--CA-[CB] |==|  0.68879
USER: genes 4 Torsion [N]-CA--C-[OXT] |==|  0.68568
USER: genes 5 Torsion [N]-CA--CB-[CG] |==|  0.75052
USER: genes 6 Torsion [CA]-CB--CG-[CD1] |==|  0.86144
USER: genes 7 Torsion [N]-C--CA-[N] |==|  0.35124
USER: genes 8 Torsion [C]-CA--CB-[CG] |==|  0.10491
USER: genes 9 Torsion [CA]-CB--CG-[CD1] |==|  0.66749
USER: genes 10 Torsion [C]-CA--N-[H2] |==|  0.69500
ROOT
ATOM      1  C   TRP D   1      14.882 -12.908  38.483  1.00 35.88 LIG 0.25  C 
ATOM      2 O    TRP D   1      13.780 -13.555  38.602  1.00 38.57 LIG-0.27  OA
ATOM      3  N   PRO D   2      15.075 -11.651  38.380  1.00 34.89 LIG-0.34  N 
ATOM      4  CA  PRO D   2      14.026 -10.587  38.511  1.00 35.03 LIG 0.18  C 
ATOM      5  CB  PRO D   2      14.861  -9.351  38.335  1.00 35.34 LIG 0.04  C 
ATOM      6  CG  PRO D   2      16.150  -9.756  39.055  1.00 35.42 LIG 0.02  C 
ATOM      7  CD  PRO D   2      16.319 -11.238  39.009  1.00 35.14 LIG 0.13  C 
ENDROOT
BRANCH 4 8
ATOM      8  C   PRO D   2      12.772 -10.586  37.645  1.00 35.70 LIG 0.24  C 
ATOM      9 O    PRO D   2      12.056 -11.560  37.470  1.00 34.88 LIG-0.27  OA
ATOM     10  N   TRP D   3      12.610  -9.348  37.132  1.00 36.87 LIG-0.34  N 
ATOM     11 H    TRP D   3      13.028  -8.664  37.444  1.00 36.87 LIG 0.16  HD
BRANCH 10 12
ATOM     12  CA  TRP D   3      11.704  -9.001  35.981  1.00 37.56 LIG 0.19  C 
BRANCH 12 13
ATOM     13  C   TRP D   3      10.517  -9.906  35.480  1.00 38.92 LIG 0.20  C 
ATOM     14 OXT  TRP D   3      10.532 -10.475  34.337  1.00 41.38 LIG-0.65  OA
ATOM     15 O    TRP D   3       9.482 -10.018  36.300  1.00 40.06 LIG-0.65  OA
ENDBRANCH 12 13
BRANCH 12 16
ATOM     16  CB  TRP D   3      12.571  -8.576  34.738  1.00 36.55 LIG 0.08  C 
BRANCH 16 17
ATOM     17  CG  TRP D   3      12.850  -7.063  34.731  1.00 35.48 LIG-0.03  A 
ATOM     18  CD1 TRP D   3      11.911  -6.038  34.885  1.00 37.13 LIG 0.10  A 
ATOM     19  NE1 TRP D   3      12.540  -4.810  34.809  1.00 40.71 LIG-0.36  N 
ATOM     20 HE1  TRP D   3      12.147  -4.048  34.872  1.00 40.71 LIG 0.17  HD
ATOM     21  CE2 TRP D   3      13.893  -4.990  34.617  1.00 36.12 LIG 0.04  A 
ATOM     22  CD2 TRP D   3      14.133  -6.417  34.560  1.00 33.28 LIG-0.00  A 
ATOM     23  CZ2 TRP D   3      14.916  -4.018  34.468  1.00 34.49 LIG 0.03  A 
ATOM     24  CE3 TRP D   3      15.449  -6.894  34.332  1.00 31.46 LIG 0.01  A 
ATOM     25  CZ3 TRP D   3      16.490  -5.955  34.199  1.00 32.66 LIG 0.00  A 
ATOM     26  CH2 TRP D   3      16.211  -4.503  34.261  1.00 36.62 LIG 0.00  A 
ENDBRANCH 16 17
ENDBRANCH 12 16
ENDBRANCH 10 12
ENDBRANCH 4 8
BRANCH 1 27
ATOM     27  CA  TRP D   1      16.209 -13.678  38.201  1.00 34.78 LIG 0.28  C 
BRANCH 27 28
ATOM     28  CB  TRP D   1      16.139 -14.472  36.889  1.00 34.63 LIG 0.08  C 
BRANCH 28 29
ATOM     29  CG  TRP D   1      15.358 -13.702  35.782  1.00 37.87 LIG-0.03  A 
ATOM     30  CD1 TRP D   1      14.198 -14.112  35.125  1.00 40.68 LIG 0.10  A 
ATOM     31  NE1 TRP D   1      13.787 -13.131  34.246  1.00 42.18 LIG-0.36  N 
ATOM     32 HE1  TRP D   1      13.095 -13.175  33.737  1.00 42.18 LIG 0.17  HD
ATOM     33  CE2 TRP D   1      14.668 -12.062  34.316  1.00 41.11 LIG 0.04  A 
ATOM     34  CD2 TRP D   1      15.666 -12.390  35.264  1.00 38.74 LIG-0.00  A 
ATOM     35  CZ2 TRP D   1      14.662 -10.820  33.611  1.00 41.13 LIG 0.03  A 
ATOM     36  CE3 TRP D   1      16.670 -11.437  35.541  1.00 40.52 LIG 0.01  A 
ATOM     37  CZ3 TRP D   1      16.667 -10.207  34.836  1.00 41.02 LIG 0.00  A 
ATOM     38  CH2 TRP D   1      15.660  -9.914  33.891  1.00 39.74 LIG 0.00  A 
ENDBRANCH 28 29
ENDBRANCH 27 28
BRANCH 27 39
ATOM     39  N   TRP D   1      16.551 -14.627  39.323  1.00 33.45 LIG-0.07  N 
ATOM     40 H3   TRP D   1      15.860 -14.689  39.881  1.00 33.45 LIG 0.28  HD
ATOM     41 H2   TRP D   1      17.262 -14.322  39.764  1.00 33.45 LIG 0.28  HD
ATOM     42 H1   TRP D   1      16.734 -15.430  38.988  1.00 33.45 LIG 0.28  HD
ENDBRANCH 27 39
ENDBRANCH 1 27
TORSDOF 9
ENDMDL
MODEL 16
USER: ADFR SOLUTION from run 45
USER: SCORE 8.181642 LL:  -2.283 LR:  -5.899 RR:   0.000 FEB:  -3.214
USER: RMSD 3.935829
USER: SEED 44
USER: STATUS no improvement in best 20 clusters for 5 generations
USER: GENES 11
USER: genes 0 Translation |==|  0.48404 0.45393 0.61034
USER: genes 1 Rotation |==|  0.48343 0.31318 0.50220 0.96349
USER: genes 2 Torsion [N]-CA--C-[O] |==|  0.30285
USER: genes 3 Torsion [C]-N--CA-[CB] |==|  0.55264
USER: genes 4 Torsion [N]-CA--C-[OXT] |==|  0.86277
USER: genes 5 Torsion [N]-CA--CB-[CG] |==|  0.79082
USER: genes 6 Torsion [CA]-CB--CG-[CD1] |==|  0.36110
USER: genes 7 Torsion [N]-C--CA-[N] |==|  0.47409
USER: genes 8 Torsion [C]-CA--CB-[CG] |==|  0.46986
USER: genes 9 Torsion [CA]-CB--CG-[CD1] |==|  0.27915
USER: genes 10 Torsion [C]-CA--N-[H2] |==|  0.72916
ROOT
ATOM      1  C   TRP D   1      12.421 -12.202  38.150  1.00 35.88 LIG 0.25  C 
ATOM      2 O    TRP D   1      11.262 -12.342  37.616  1.00 38.57 LIG-0.27  OA
ATOM      3  N   PRO D   2      13.049 -11.134  38.454  1.00 34.89 LIG-0.34  N 
ATOM      4  CA  PRO D   2      12.502  -9.740  38.374  1.00 35.03 LIG 0.18  C 
ATOM      5  CB  PRO D   2      13.673  -8.952  38.888  1.00 35.34 LIG 0.04  C 
ATOM      6  CG  PRO D   2      14.211  -9.890  39.971  1.00 35.42 LIG 0.02  C 
ATOM      7  CD  PRO D   2      13.872 -11.305  39.641  1.00 35.14 LIG 0.13  C 
ENDROOT
BRANCH 4 8
ATOM      8  C   PRO D   2      11.929  -9.176  37.079  1.00 35.70 LIG 0.24  C 
ATOM      9 O    PRO D   2      10.740  -8.963  36.889  1.00 34.88 LIG-0.27  OA
ATOM     10  N   TRP D   3      12.946  -8.962  36.219  1.00 36.87 LIG-0.34  N 
ATOM     11 H    TRP D   3      13.767  -8.945  36.476  1.00 36.87 LIG 0.16  HD
BRANCH 10 12
ATOM     12  CA  TRP D   3      12.794  -8.730  34.740  1.00 37.56 LIG 0.19  C 
BRANCH 12 13
ATOM     13  C   TRP D   3      11.636  -9.333  33.861  1.00 38.92 LIG 0.20  C 
ATOM     14 OXT  TRP D   3      11.328 -10.571  33.899  1.00 41.38 LIG-0.65  OA
ATOM     15 O    TRP D   3      11.016  -8.486  33.050  1.00 40.06 LIG-0.65  OA
ENDBRANCH 12 13
BRANCH 12 16
ATOM     16  CB  TRP D   3      14.166  -9.003  34.020  1.00 36.55 LIG 0.08  C 
BRANCH 16 17
ATOM     17  CG  TRP D   3      15.166  -7.857  34.250  1.00 35.48 LIG-0.03  A 
ATOM     18  CD1 TRP D   3      16.492  -7.977  34.682  1.00 37.13 LIG 0.10  A 
ATOM     19  NE1 TRP D   3      17.067  -6.724  34.784  1.00 40.71 LIG-0.36  N 
ATOM     20 HE1  TRP D   3      17.874  -6.569  35.039  1.00 40.71 LIG 0.17  HD
ATOM     21  CE2 TRP D   3      16.153  -5.760  34.416  1.00 36.12 LIG 0.04  A 
ATOM     22  CD2 TRP D   3      14.924  -6.443  34.068  1.00 33.28 LIG-0.00  A 
ATOM     23  CZ2 TRP D   3      16.302  -4.350  34.381  1.00 34.49 LIG 0.03  A 
ATOM     24  CE3 TRP D   3      13.790  -5.683  33.682  1.00 31.46 LIG 0.01  A 
ATOM     25  CZ3 TRP D   3      13.911  -4.281  33.619  1.00 32.66 LIG 0.00  A 
ATOM     26  CH2 TRP D   3      15.181  -3.614  33.981  1.00 36.62 LIG 0.00  A 
ENDBRANCH 16 17
ENDBRANCH 12 16
ENDBRANCH 10 12
ENDBRANCH 4 8
BRANCH 1 27
ATOM     27  CA  TRP D   1      13.365 -13.436  38.292  1.00 34.78 LIG 0.28  C 
BRANCH 27 28
ATOM     28  CB  TRP D   1      14.489 -13.417  37.247  1.00 34.63 LIG 0.08  C 
BRANCH 28 29
ATOM     29  CG  TRP D   1      15.583 -14.485  37.547  1.00 37.87 LIG-0.03  A 
ATOM     30  CD1 TRP D   1      15.734 -15.733  36.945  1.00 40.68 LIG 0.10  A 
ATOM     31  NE1 TRP D   1      16.853 -16.365  37.449  1.00 42.18 LIG-0.36  N 
ATOM     32 HE1  TRP D   1      17.132 -17.145  37.219  1.00 42.18 LIG 0.17  HD
ATOM     33  CE2 TRP D   1      17.454 -15.539  38.387  1.00 41.11 LIG 0.04  A 
ATOM     34  CD2 TRP D   1      16.682 -14.356  38.476  1.00 38.74 LIG-0.00  A 
ATOM     35  CZ2 TRP D   1      18.632 -15.744  39.169  1.00 41.13 LIG 0.03  A 
ATOM     36  CE3 TRP D   1      17.114 -13.334  39.348  1.00 40.52 LIG 0.01  A 
ATOM     37  CZ3 TRP D   1      18.279 -13.541  40.129  1.00 41.02 LIG 0.00  A 
ATOM     38  CH2 TRP D   1      19.023 -14.736  40.021  1.00 39.74 LIG 0.00  A 
ENDBRANCH 28 29
ENDBRANCH 27 28
BRANCH 27 39
ATOM     39  N   TRP D   1      12.607 -14.734  38.163  1.00 33.45 LIG-0.07  N 
ATOM     40 H3   TRP D   1      11.850 -14.593  37.718  1.00 33.45 LIG 0.28  HD
ATOM     41 H2   TRP D   1      12.420 -15.052  38.973  1.00 33.45 LIG 0.28  HD
ATOM     42 H1   TRP D   1      13.104 -15.326  37.721  1.00 33.45 LIG 0.28  HD
ENDBRANCH 27 39
ENDBRANCH 1 27
TORSDOF 9
ENDMDL
MODEL 17
USER: ADFR SOLUTION from run 13
USER: SCORE 8.895557 LL:  -2.996 LR:  -5.899 RR:   0.000 FEB:  -3.215
USER: RMSD 4.031277
USER: SEED 538603
USER: STATUS no improvement in best 9 clusters for 5 generations
USER: GENES 11
USER: genes 0 Translation |==|  0.45267 0.52082 0.55526
USER: genes 1 Rotation |==|  0.55363 0.31517 0.42005 0.95450
USER: genes 2 Torsion [N]-CA--C-[O] |==|  0.28963
USER: genes 3 Torsion [C]-N--CA-[CB] |==|  0.39058
USER: genes 4 Torsion [N]-CA--C-[OXT] |==|  0.00592
USER: genes 5 Torsion [N]-CA--CB-[CG] |==|  0.23760
USER: genes 6 Torsion [CA]-CB--CG-[CD1] |==|  0.80700
USER: genes 7 Torsion [N]-C--CA-[N] |==|  0.35519
USER: genes 8 Torsion [C]-CA--CB-[CG] |==|  0.35818
USER: genes 9 Torsion [CA]-CB--CG-[CD1] |==|  0.34068
USER: genes 10 Torsion [C]-CA--N-[H2] |==|  0.80102
ROOT
ATOM      1  C   TRP D   1      11.480 -10.196  36.498  1.00 35.88 LIG 0.25  C 
ATOM      2 O    TRP D   1      10.346  -9.894  35.977  1.00 38.57 LIG-0.27  OA
ATOM      3  N   PRO D   2      12.284  -9.464  37.165  1.00 34.89 LIG-0.34  N 
ATOM      4  CA  PRO D   2      12.020  -8.061  37.625  1.00 35.03 LIG 0.18  C 
ATOM      5  CB  PRO D   2      13.291  -7.769  38.370  1.00 35.34 LIG 0.04  C 
ATOM      6  CG  PRO D   2      13.580  -9.129  39.011  1.00 35.42 LIG 0.02  C 
ATOM      7  CD  PRO D   2      12.994 -10.222  38.182  1.00 35.14 LIG 0.13  C 
ENDROOT
BRANCH 4 8
ATOM      8  C   PRO D   2      11.636  -6.956  36.649  1.00 35.70 LIG 0.24  C 
ATOM      9 O    PRO D   2      10.503  -6.513  36.522  1.00 34.88 LIG-0.27  OA
ATOM     10  N   TRP D   3      12.744  -6.570  35.983  1.00 36.87 LIG-0.34  N 
ATOM     11 H    TRP D   3      13.534  -6.776  36.251  1.00 36.87 LIG 0.16  HD
BRANCH 10 12
ATOM     12  CA  TRP D   3      12.752  -5.754  34.718  1.00 37.56 LIG 0.19  C 
BRANCH 12 13
ATOM     13  C   TRP D   3      12.680  -6.362  33.268  1.00 38.92 LIG 0.20  C 
ATOM     14 OXT  TRP D   3      12.567  -7.616  33.062  1.00 41.38 LIG-0.65  OA
ATOM     15 O    TRP D   3      12.776  -5.498  32.267  1.00 40.06 LIG-0.65  OA
ENDBRANCH 12 13
BRANCH 12 16
ATOM     16  CB  TRP D   3      13.933  -4.715  34.770  1.00 36.55 LIG 0.08  C 
BRANCH 16 17
ATOM     17  CG  TRP D   3      15.254  -5.331  34.279  1.00 35.48 LIG-0.03  A 
ATOM     18  CD1 TRP D   3      16.013  -6.310  34.929  1.00 37.13 LIG 0.10  A 
ATOM     19  NE1 TRP D   3      17.142  -6.599  34.185  1.00 40.71 LIG-0.36  N 
ATOM     20 HE1  TRP D   3      17.748  -7.168  34.406  1.00 40.71 LIG 0.17  HD
ATOM     21  CE2 TRP D   3      17.151  -5.837  33.036  1.00 36.12 LIG 0.04  A 
ATOM     22  CD2 TRP D   3      15.961  -5.011  33.058  1.00 33.28 LIG-0.00  A 
ATOM     23  CZ2 TRP D   3      18.114  -5.793  31.996  1.00 34.49 LIG 0.03  A 
ATOM     24  CE3 TRP D   3      15.731  -4.092  32.003  1.00 31.46 LIG 0.01  A 
ATOM     25  CZ3 TRP D   3      16.659  -4.039  30.945  1.00 32.66 LIG 0.00  A 
ATOM     26  CH2 TRP D   3      17.865  -4.895  30.953  1.00 36.62 LIG 0.00  A 
ENDBRANCH 16 17
ENDBRANCH 12 16
ENDBRANCH 10 12
ENDBRANCH 4 8
BRANCH 1 27
ATOM     27  CA  TRP D   1      12.160 -11.555  36.146  1.00 34.78 LIG 0.28  C 
BRANCH 27 28
ATOM     28  CB  TRP D   1      12.466 -11.667  34.646  1.00 34.63 LIG 0.08  C 
BRANCH 28 29
ATOM     29  CG  TRP D   1      13.947 -12.074  34.381  1.00 37.87 LIG-0.03  A 
ATOM     30  CD1 TRP D   1      14.405 -13.179  33.666  1.00 40.68 LIG 0.10  A 
ATOM     31  NE1 TRP D   1      15.784 -13.165  33.614  1.00 42.18 LIG-0.36  N 
ATOM     32 HE1  TRP D   1      16.275 -13.754  33.225  1.00 42.18 LIG 0.17  HD
ATOM     33  CE2 TRP D   1      16.250 -12.048  34.292  1.00 41.11 LIG 0.04  A 
ATOM     34  CD2 TRP D   1      15.127 -11.347  34.789  1.00 38.74 LIG-0.00  A 
ATOM     35  CZ2 TRP D   1      17.589 -11.597  34.506  1.00 41.13 LIG 0.03  A 
ATOM     36  CE3 TRP D   1      15.342 -10.143  35.492  1.00 40.52 LIG 0.01  A 
ATOM     37  CZ3 TRP D   1      16.671  -9.699  35.711  1.00 41.02 LIG 0.00  A 
ATOM     38  CH2 TRP D   1      17.771 -10.427  35.207  1.00 39.74 LIG 0.00  A 
ENDBRANCH 28 29
ENDBRANCH 27 28
BRANCH 27 39
ATOM     39  N   TRP D   1      11.304 -12.728  36.554  1.00 33.45 LIG-0.07  N 
ATOM     40 H3   TRP D   1      10.471 -12.602  36.267  1.00 33.45 LIG 0.28  HD
ATOM     41 H2   TRP D   1      11.304 -12.802  37.441  1.00 33.45 LIG 0.28  HD
ATOM     42 H1   TRP D   1      11.631 -13.474  36.195  1.00 33.45 LIG 0.28  HD
ENDBRANCH 27 39
ENDBRANCH 1 27
TORSDOF 9
ENDMDL
MODEL 18
USER: ADFR SOLUTION from run 45
USER: SCORE 7.977383 LL:  -2.162 LR:  -5.816 RR:   0.000 FEB:  -3.131
USER: RMSD 4.104168
USER: SEED 44
USER: STATUS no improvement in best 20 clusters for 5 generations
USER: GENES 11
USER: genes 0 Translation |==|  0.48661 0.47800 0.59274
USER: genes 1 Rotation |==|  0.45761 0.25859 0.50632 0.93576
USER: genes 2 Torsion [N]-CA--C-[O] |==|  0.34763
USER: genes 3 Torsion [C]-N--CA-[CB] |==|  0.41829
USER: genes 4 Torsion [N]-CA--C-[OXT] |==|  0.98920
USER: genes 5 Torsion [N]-CA--CB-[CG] |==|  0.71523
USER: genes 6 Torsion [CA]-CB--CG-[CD1] |==|  0.03568
USER: genes 7 Torsion [N]-C--CA-[N] |==|  0.43397
USER: genes 8 Torsion [C]-CA--CB-[CG] |==|  0.52578
USER: genes 9 Torsion [CA]-CB--CG-[CD1] |==|  0.28266
USER: genes 10 Torsion [C]-CA--N-[H2] |==|  0.78636
ROOT
ATOM      1  C   TRP D   1      12.498 -11.480  37.622  1.00 35.88 LIG 0.25  C 
ATOM      2 O    TRP D   1      11.499 -11.672  36.840  1.00 38.57 LIG-0.27  OA
ATOM      3  N   PRO D   2      13.065 -10.388  37.959  1.00 34.89 LIG-0.34  N 
ATOM      4  CA  PRO D   2      12.592  -9.009  37.607  1.00 35.03 LIG 0.18  C 
ATOM      5  CB  PRO D   2      13.626  -8.173  38.307  1.00 35.34 LIG 0.04  C 
ATOM      6  CG  PRO D   2      13.861  -8.993  39.578  1.00 35.42 LIG 0.02  C 
ATOM      7  CD  PRO D   2      13.572 -10.434  39.321  1.00 35.14 LIG 0.13  C 
ENDROOT
BRANCH 4 8
ATOM      8  C   PRO D   2      12.363  -8.583  36.162  1.00 35.70 LIG 0.24  C 
ATOM      9 O    PRO D   2      11.315  -8.118  35.739  1.00 34.88 LIG-0.27  OA
ATOM     10  N   TRP D   3      13.499  -8.805  35.467  1.00 36.87 LIG-0.34  N 
ATOM     11 H    TRP D   3      14.253  -8.946  35.855  1.00 36.87 LIG 0.16  HD
BRANCH 10 12
ATOM     12  CA  TRP D   3      13.601  -8.836  33.965  1.00 37.56 LIG 0.19  C 
BRANCH 12 13
ATOM     13  C   TRP D   3      13.171 -10.057  33.070  1.00 38.92 LIG 0.20  C 
ATOM     14 OXT  TRP D   3      12.763 -11.157  33.573  1.00 41.38 LIG-0.65  OA
ATOM     15 O    TRP D   3      13.289  -9.892  31.760  1.00 40.06 LIG-0.65  OA
ENDBRANCH 12 13
BRANCH 12 16
ATOM     16  CB  TRP D   3      15.039  -8.372  33.526  1.00 36.55 LIG 0.08  C 
BRANCH 16 17
ATOM     17  CG  TRP D   3      15.036  -6.922  33.012  1.00 35.48 LIG-0.03  A 
ATOM     18  CD1 TRP D   3      14.003  -5.988  33.147  1.00 37.13 LIG 0.10  A 
ATOM     19  NE1 TRP D   3      14.365  -4.798  32.545  1.00 40.71 LIG-0.36  N 
ATOM     20 HE1  TRP D   3      13.874  -4.093  32.506  1.00 40.71 LIG 0.17  HD
ATOM     21  CE2 TRP D   3      15.633  -4.910  32.014  1.00 36.12 LIG 0.04  A 
ATOM     22  CD2 TRP D   3      16.097  -6.254  32.290  1.00 33.28 LIG-0.00  A 
ATOM     23  CZ2 TRP D   3      16.395  -3.951  31.300  1.00 34.49 LIG 0.03  A 
ATOM     24  CE3 TRP D   3      17.372  -6.661  31.821  1.00 31.46 LIG 0.01  A 
ATOM     25  CZ3 TRP D   3      18.161  -5.725  31.125  1.00 32.66 LIG 0.00  A 
ATOM     26  CH2 TRP D   3      17.657  -4.360  30.858  1.00 36.62 LIG 0.00  A 
ENDBRANCH 16 17
ENDBRANCH 12 16
ENDBRANCH 10 12
ENDBRANCH 4 8
BRANCH 1 27
ATOM     27  CA  TRP D   1      13.345 -12.695  38.114  1.00 34.78 LIG 0.28  C 
BRANCH 27 28
ATOM     28  CB  TRP D   1      14.504 -13.005  37.157  1.00 34.63 LIG 0.08  C 
BRANCH 28 29
ATOM     29  CG  TRP D   1      15.211 -14.348  37.512  1.00 37.87 LIG-0.03  A 
ATOM     30  CD1 TRP D   1      15.054 -15.579  36.877  1.00 40.68 LIG 0.10  A 
ATOM     31  NE1 TRP D   1      15.890 -16.514  37.456  1.00 42.18 LIG-0.36  N 
ATOM     32 HE1  TRP D   1      15.954 -17.339  37.221  1.00 42.18 LIG 0.17  HD
ATOM     33  CE2 TRP D   1      16.608 -15.908  38.475  1.00 41.11 LIG 0.04  A 
ATOM     34  CD2 TRP D   1      16.204 -14.554  38.541  1.00 38.74 LIG-0.00  A 
ATOM     35  CZ2 TRP D   1      17.594 -16.455  39.352  1.00 41.13 LIG 0.03  A 
ATOM     36  CE3 TRP D   1      16.824 -13.711  39.488  1.00 40.52 LIG 0.01  A 
ATOM     37  CZ3 TRP D   1      17.797 -14.256  40.363  1.00 41.02 LIG 0.00  A 
ATOM     38  CH2 TRP D   1      18.174 -15.614  40.275  1.00 39.74 LIG 0.00  A 
ENDBRANCH 28 29
ENDBRANCH 27 28
BRANCH 27 39
ATOM     39  N   TRP D   1      12.500 -13.936  38.269  1.00 33.45 LIG-0.07  N 
ATOM     40 H3   TRP D   1      11.951 -14.010  37.572  1.00 33.45 LIG 0.28  HD
ATOM     41 H2   TRP D   1      12.023 -13.879  39.018  1.00 33.45 LIG 0.28  HD
ATOM     42 H1   TRP D   1      13.028 -14.651  38.307  1.00 33.45 LIG 0.28  HD
ENDBRANCH 27 39
ENDBRANCH 1 27
TORSDOF 9
ENDMDL
MODEL 19
USER: ADFR SOLUTION from run 74
USER: SCORE 9.697430 LL:  -3.915 LR:  -5.783 RR:   0.000 FEB:  -3.098
USER: RMSD 3.900710
USER: SEED 73
USER: STATUS no improvement in best 11 clusters for 5 generations
USER: GENES 11
USER: genes 0 Translation |==|  0.48534 0.47748 0.59543
USER: genes 1 Rotation |==|  0.46581 0.24483 0.43373 0.92347
USER: genes 2 Torsion [N]-CA--C-[O] |==|  0.46205
USER: genes 3 Torsion [C]-N--CA-[CB] |==|  0.33821
USER: genes 4 Torsion [N]-CA--C-[OXT] |==|  0.94263
USER: genes 5 Torsion [N]-CA--CB-[CG] |==|  0.80315
USER: genes 6 Torsion [CA]-CB--CG-[CD1] |==|  0.37300
USER: genes 7 Torsion [N]-C--CA-[N] |==|  0.29411
USER: genes 8 Torsion [C]-CA--CB-[CG] |==|  0.18916
USER: genes 9 Torsion [CA]-CB--CG-[CD1] |==|  0.57089
USER: genes 10 Torsion [C]-CA--N-[H2] |==|  0.71321
ROOT
ATOM      1  C   TRP D   1      12.460 -11.495  37.703  1.00 35.88 LIG 0.25  C 
ATOM      2 O    TRP D   1      11.539 -11.324  36.826  1.00 38.57 LIG-0.27  OA
ATOM      3  N   PRO D   2      13.212 -10.633  38.267  1.00 34.89 LIG-0.34  N 
ATOM      4  CA  PRO D   2      13.100  -9.144  38.126  1.00 35.03 LIG 0.18  C 
ATOM      5  CB  PRO D   2      14.207  -8.695  39.038  1.00 35.34 LIG 0.04  C 
ATOM      6  CG  PRO D   2      14.108  -9.731  40.160  1.00 35.42 LIG 0.02  C 
ATOM      7  CD  PRO D   2      13.538 -11.005  39.634  1.00 35.14 LIG 0.13  C 
ENDROOT
BRANCH 4 8
ATOM      8  C   PRO D   2      13.137  -8.462  36.765  1.00 35.70 LIG 0.24  C 
ATOM      9 O    PRO D   2      12.816  -7.299  36.569  1.00 34.88 LIG-0.27  OA
ATOM     10  N   TRP D   3      13.581  -9.352  35.853  1.00 36.87 LIG-0.34  N 
ATOM     11 H    TRP D   3      13.973 -10.083  36.080  1.00 36.87 LIG 0.16  HD
BRANCH 10 12
ATOM     12  CA  TRP D   3      13.456  -9.197  34.361  1.00 37.56 LIG 0.19  C 
BRANCH 12 13
ATOM     13  C   TRP D   3      12.465 -10.025  33.461  1.00 38.92 LIG 0.20  C 
ATOM     14 OXT  TRP D   3      11.972 -11.139  33.841  1.00 41.38 LIG-0.65  OA
ATOM     15 O    TRP D   3      12.196  -9.516  32.267  1.00 40.06 LIG-0.65  OA
ENDBRANCH 12 13
BRANCH 12 16
ATOM     16  CB  TRP D   3      14.886  -9.239  33.705  1.00 36.55 LIG 0.08  C 
BRANCH 16 17
ATOM     17  CG  TRP D   3      15.695  -7.970  34.023  1.00 35.48 LIG-0.03  A 
ATOM     18  CD1 TRP D   3      17.029  -7.910  34.441  1.00 37.13 LIG 0.10  A 
ATOM     19  NE1 TRP D   3      17.400  -6.594  34.639  1.00 40.71 LIG-0.36  N 
ATOM     20 HE1  TRP D   3      18.176  -6.333  34.903  1.00 40.71 LIG 0.17  HD
ATOM     21  CE2 TRP D   3      16.339  -5.762  34.351  1.00 36.12 LIG 0.04  A 
ATOM     22  CD2 TRP D   3      15.229  -6.603  33.954  1.00 33.28 LIG-0.00  A 
ATOM     23  CZ2 TRP D   3      16.261  -4.348  34.427  1.00 34.49 LIG 0.03  A 
ATOM     24  CE3 TRP D   3      13.983  -6.006  33.633  1.00 31.46 LIG 0.01  A 
ATOM     25  CZ3 TRP D   3      13.879  -4.602  33.680  1.00 32.66 LIG 0.00  A 
ATOM     26  CH2 TRP D   3      15.032  -3.772  34.090  1.00 36.62 LIG 0.00  A 
ENDBRANCH 16 17
ENDBRANCH 12 16
ENDBRANCH 10 12
ENDBRANCH 4 8
BRANCH 1 27
ATOM     27  CA  TRP D   1      12.955 -12.937  38.037  1.00 34.78 LIG 0.28  C 
BRANCH 27 28
ATOM     28  CB  TRP D   1      13.049 -13.813  36.781  1.00 34.63 LIG 0.08  C 
BRANCH 28 29
ATOM     29  CG  TRP D   1      14.181 -13.339  35.821  1.00 37.87 LIG-0.03  A 
ATOM     30  CD1 TRP D   1      14.259 -13.534  34.443  1.00 40.68 LIG 0.10  A 
ATOM     31  NE1 TRP D   1      15.392 -12.922  33.947  1.00 42.18 LIG-0.36  N 
ATOM     32 HE1  TRP D   1      15.637 -12.918  33.122  1.00 42.18 LIG 0.17  HD
ATOM     33  CE2 TRP D   1      16.073 -12.315  34.992  1.00 41.11 LIG 0.04  A 
ATOM     34  CD2 TRP D   1      15.345 -12.561  36.180  1.00 38.74 LIG-0.00  A 
ATOM     35  CZ2 TRP D   1      17.285 -11.559  34.981  1.00 41.13 LIG 0.03  A 
ATOM     36  CE3 TRP D   1      15.822 -12.011  37.388  1.00 40.52 LIG 0.01  A 
ATOM     37  CZ3 TRP D   1      17.029 -11.266  37.378  1.00 41.02 LIG 0.00  A 
ATOM     38  CH2 TRP D   1      17.735 -11.045  36.175  1.00 39.74 LIG 0.00  A 
ENDBRANCH 28 29
ENDBRANCH 27 28
BRANCH 27 39
ATOM     39  N   TRP D   1      12.052 -13.618  39.036  1.00 33.45 LIG-0.07  N 
ATOM     40 H3   TRP D   1      11.275 -13.186  39.077  1.00 33.45 LIG 0.28  HD
ATOM     41 H2   TRP D   1      12.438 -13.611  39.839  1.00 33.45 LIG 0.28  HD
ATOM     42 H1   TRP D   1      11.910 -14.459  38.783  1.00 33.45 LIG 0.28  HD
ENDBRANCH 27 39
ENDBRANCH 1 27
TORSDOF 9
ENDMDL
MODEL 20
USER: ADFR SOLUTION from run 154
USER: SCORE 8.905444 LL:  -3.189 LR:  -5.716 RR:   0.000 FEB:  -3.031
USER: RMSD 3.499254
USER: SEED 153
USER: STATUS no improvement in best 17 clusters for 5 generations
USER: GENES 11
USER: genes 0 Translation |==|  0.49574 0.47656 0.58980
USER: genes 1 Rotation |==|  0.50117 0.37631 0.58167 0.97752
USER: genes 2 Torsion [N]-CA--C-[O] |==|  0.14367
USER: genes 3 Torsion [C]-N--CA-[CB] |==|  0.76122
USER: genes 4 Torsion [N]-CA--C-[OXT] |==|  0.09708
USER: genes 5 Torsion [N]-CA--CB-[CG] |==|  0.76118
USER: genes 6 Torsion [CA]-CB--CG-[CD1] |==|  0.79354
USER: genes 7 Torsion [N]-C--CA-[N] |==|  0.35011
USER: genes 8 Torsion [C]-CA--CB-[CG] |==|  0.19571
USER: genes 9 Torsion [CA]-CB--CG-[CD1] |==|  0.76550
USER: genes 10 Torsion [C]-CA--N-[H2] |==|  0.70578
ROOT
ATOM      1  C   TRP D   1      12.772 -11.523  37.534  1.00 35.88 LIG 0.25  C 
ATOM      2 O    TRP D   1      11.620 -12.052  37.331  1.00 38.57 LIG-0.27  OA
ATOM      3  N   PRO D   2      13.090 -10.293  37.648  1.00 34.89 LIG-0.34  N 
ATOM      4  CA  PRO D   2      12.132  -9.140  37.704  1.00 35.03 LIG 0.18  C 
ATOM      5  CB  PRO D   2      13.088  -7.994  37.878  1.00 35.34 LIG 0.04  C 
ATOM      6  CG  PRO D   2      14.147  -8.623  38.786  1.00 35.42 LIG 0.02  C 
ATOM      7  CD  PRO D   2      14.195 -10.099  38.572  1.00 35.14 LIG 0.13  C 
ENDROOT
BRANCH 4 8
ATOM      8  C   PRO D   2      11.105  -8.896  36.606  1.00 35.70 LIG 0.24  C 
ATOM      9 O    PRO D   2      10.327  -9.742  36.191  1.00 34.88 LIG-0.27  OA
ATOM     10  N   TRP D   3      11.212  -7.614  36.198  1.00 36.87 LIG-0.34  N 
ATOM     11 H    TRP D   3      11.635  -7.022  36.657  1.00 36.87 LIG 0.16  HD
BRANCH 10 12
ATOM     12  CA  TRP D   3      10.626  -7.058  34.928  1.00 37.56 LIG 0.19  C 
BRANCH 12 13
ATOM     13  C   TRP D   3       9.166  -7.354  34.419  1.00 38.92 LIG 0.20  C 
ATOM     14 OXT  TRP D   3       8.184  -7.498  35.221  1.00 41.38 LIG-0.65  OA
ATOM     15 O    TRP D   3       9.018  -7.478  33.108  1.00 40.06 LIG-0.65  OA
ENDBRANCH 12 13
BRANCH 12 16
ATOM     16  CB  TRP D   3      11.630  -7.291  33.739  1.00 36.55 LIG 0.08  C 
BRANCH 16 17
ATOM     17  CG  TRP D   3      12.668  -6.160  33.642  1.00 35.48 LIG-0.03  A 
ATOM     18  CD1 TRP D   3      12.450  -4.863  33.166  1.00 37.13 LIG 0.10  A 
ATOM     19  NE1 TRP D   3      13.626  -4.139  33.221  1.00 40.71 LIG-0.36  N 
ATOM     20 HE1  TRP D   3      13.716  -3.321  32.971  1.00 40.71 LIG 0.17  HD
ATOM     21  CE2 TRP D   3      14.634  -4.925  33.737  1.00 36.12 LIG 0.04  A 
ATOM     22  CD2 TRP D   3      14.063  -6.226  34.018  1.00 33.28 LIG-0.00  A 
ATOM     23  CZ2 TRP D   3      15.998  -4.605  33.959  1.00 34.49 LIG 0.03  A 
ATOM     24  CE3 TRP D   3      14.893  -7.256  34.530  1.00 31.46 LIG 0.01  A 
ATOM     25  CZ3 TRP D   3      16.248  -6.964  34.779  1.00 32.66 LIG 0.00  A 
ATOM     26  CH2 TRP D   3      16.801  -5.625  34.480  1.00 36.62 LIG 0.00  A 
ENDBRANCH 16 17
ENDBRANCH 12 16
ENDBRANCH 10 12
ENDBRANCH 4 8
BRANCH 1 27
ATOM     27  CA  TRP D   1      14.058 -12.400  37.429  1.00 34.78 LIG 0.28  C 
BRANCH 27 28
ATOM     28  CB  TRP D   1      14.206 -13.031  36.038  1.00 34.63 LIG 0.08  C 
BRANCH 28 29
ATOM     29  CG  TRP D   1      14.558 -11.972  34.951  1.00 37.87 LIG-0.03  A 
ATOM     30  CD1 TRP D   1      13.674 -11.155  34.248  1.00 40.68 LIG 0.10  A 
ATOM     31  NE1 TRP D   1      14.378 -10.316  33.407  1.00 42.18 LIG-0.36  N 
ATOM     32 HE1  TRP D   1      14.031  -9.732  32.880  1.00 42.18 LIG 0.17  HD
ATOM     33  CE2 TRP D   1      15.734 -10.568  33.550  1.00 41.11 LIG 0.04  A 
ATOM     34  CD2 TRP D   1      15.882 -11.602  34.505  1.00 38.74 LIG-0.00  A 
ATOM     35  CZ2 TRP D   1      16.853  -9.957  32.906  1.00 41.13 LIG 0.03  A 
ATOM     36  CE3 TRP D   1      17.185 -12.017  34.851  1.00 40.52 LIG 0.01  A 
ATOM     37  CZ3 TRP D   1      18.295 -11.415  34.207  1.00 41.02 LIG 0.00  A 
ATOM     38  CH2 TRP D   1      18.113 -10.390  33.253  1.00 39.74 LIG 0.00  A 
ENDBRANCH 28 29
ENDBRANCH 27 28
BRANCH 27 39
ATOM     39  N   TRP D   1      14.068 -13.500  38.462  1.00 33.45 LIG-0.07  N 
ATOM     40 H3   TRP D   1      13.255 -13.584  38.814  1.00 33.45 LIG 0.28  HD
ATOM     41 H2   TRP D   1      14.650 -13.299  39.105  1.00 33.45 LIG 0.28  HD
ATOM     42 H1   TRP D   1      14.305 -14.267  38.078  1.00 33.45 LIG 0.28  HD
ENDBRANCH 27 39
ENDBRANCH 1 27
TORSDOF 9
ENDMDL
MODEL 21
USER: ADFR SOLUTION from run 122
USER: SCORE 8.075818 LL:  -2.369 LR:  -5.707 RR:   0.000 FEB:  -3.023
USER: RMSD 4.443327
USER: SEED 121
USER: STATUS no improvement in best 14 clusters for 5 generations
USER: GENES 11
USER: genes 0 Translation |==|  0.54341 0.43376 0.56693
USER: genes 1 Rotation |==|  0.57989 0.31843 0.52544 0.95826
USER: genes 2 Torsion [N]-CA--C-[O] |==|  0.37846
USER: genes 3 Torsion [C]-N--CA-[CB] |==|  0.51078
USER: genes 4 Torsion [N]-CA--C-[OXT] |==|  0.96458
USER: genes 5 Torsion [N]-CA--CB-[CG] |==|  0.81446
USER: genes 6 Torsion [CA]-CB--CG-[CD1] |==|  0.19604
USER: genes 7 Torsion [N]-C--CA-[N] |==|  0.49107
USER: genes 8 Torsion [C]-CA--CB-[CG] |==|  0.44147
USER: genes 9 Torsion [CA]-CB--CG-[CD1] |==|  0.36024
USER: genes 10 Torsion [C]-CA--N-[H2] |==|  0.72130
ROOT
ATOM      1  C   TRP D   1      14.202 -12.807  36.848  1.00 35.88 LIG 0.25  C 
ATOM      2 O    TRP D   1      13.077 -13.032  36.273  1.00 38.57 LIG-0.27  OA
ATOM      3  N   PRO D   2      14.592 -11.775  37.488  1.00 34.89 LIG-0.34  N 
ATOM      4  CA  PRO D   2      13.745 -10.590  37.844  1.00 35.03 LIG 0.18  C 
ATOM      5  CB  PRO D   2      14.737  -9.758  38.606  1.00 35.34 LIG 0.04  C 
ATOM      6  CG  PRO D   2      15.527 -10.840  39.346  1.00 35.42 LIG 0.02  C 
ATOM      7  CD  PRO D   2      15.494 -12.117  38.576  1.00 35.14 LIG 0.13  C 
ENDROOT
BRANCH 4 8
ATOM      8  C   PRO D   2      12.992  -9.795  36.784  1.00 35.70 LIG 0.24  C 
ATOM      9 O    PRO D   2      11.838  -9.412  36.901  1.00 34.88 LIG-0.27  OA
ATOM     10  N   TRP D   3      13.816  -9.597  35.733  1.00 36.87 LIG-0.34  N 
ATOM     11 H    TRP D   3      14.666  -9.716  35.789  1.00 36.87 LIG 0.16  HD
BRANCH 10 12
ATOM     12  CA  TRP D   3      13.379  -9.156  34.362  1.00 37.56 LIG 0.19  C 
BRANCH 12 13
ATOM     13  C   TRP D   3      12.145  -9.754  33.588  1.00 38.92 LIG 0.20  C 
ATOM     14 OXT  TRP D   3      11.560 -10.824  33.965  1.00 41.38 LIG-0.65  OA
ATOM     15 O    TRP D   3      11.766  -9.099  32.499  1.00 40.06 LIG-0.65  OA
ENDBRANCH 12 13
BRANCH 12 16
ATOM     16  CB  TRP D   3      14.619  -9.138  33.394  1.00 36.55 LIG 0.08  C 
BRANCH 16 17
ATOM     17  CG  TRP D   3      15.635  -8.054  33.792  1.00 35.48 LIG-0.03  A 
ATOM     18  CD1 TRP D   3      16.466  -8.059  34.917  1.00 37.13 LIG 0.10  A 
ATOM     19  NE1 TRP D   3      17.230  -6.907  34.941  1.00 40.71 LIG-0.36  N 
ATOM     20 HE1  TRP D   3      17.803  -6.706  35.550  1.00 40.71 LIG 0.17  HD
ATOM     21  CE2 TRP D   3      16.935  -6.129  33.842  1.00 36.12 LIG 0.04  A 
ATOM     22  CD2 TRP D   3      15.918  -6.826  33.082  1.00 33.28 LIG-0.00  A 
ATOM     23  CZ2 TRP D   3      17.462  -4.866  33.469  1.00 34.49 LIG 0.03  A 
ATOM     24  CE3 TRP D   3      15.396  -6.230  31.906  1.00 31.46 LIG 0.01  A 
ATOM     25  CZ3 TRP D   3      15.913  -4.985  31.498  1.00 32.66 LIG 0.00  A 
ATOM     26  CH2 TRP D   3      16.951  -4.298  32.297  1.00 36.62 LIG 0.00  A 
ENDBRANCH 16 17
ENDBRANCH 12 16
ENDBRANCH 10 12
ENDBRANCH 4 8
BRANCH 1 27
ATOM     27  CA  TRP D   1      15.404 -13.774  36.610  1.00 34.78 LIG 0.28  C 
BRANCH 27 28
ATOM     28  CB  TRP D   1      16.508 -13.116  35.772  1.00 34.63 LIG 0.08  C 
BRANCH 28 29
ATOM     29  CG  TRP D   1      17.884 -13.823  35.961  1.00 37.87 LIG-0.03  A 
ATOM     30  CD1 TRP D   1      18.747 -14.272  34.963  1.00 40.68 LIG 0.10  A 
ATOM     31  NE1 TRP D   1      19.888 -14.800  35.533  1.00 42.18 LIG-0.36  N 
ATOM     32 HE1  TRP D   1      20.552 -15.136  35.102  1.00 42.18 LIG 0.17  HD
ATOM     33  CE2 TRP D   1      19.791 -14.701  36.913  1.00 41.11 LIG 0.04  A 
ATOM     34  CD2 TRP D   1      18.546 -14.098  37.214  1.00 38.74 LIG-0.00  A 
ATOM     35  CZ2 TRP D   1      20.713 -15.098  37.929  1.00 41.13 LIG 0.03  A 
ATOM     36  CE3 TRP D   1      18.226 -13.856  38.567  1.00 40.52 LIG 0.01  A 
ATOM     37  CZ3 TRP D   1      19.139 -14.257  39.575  1.00 41.02 LIG 0.00  A 
ATOM     38  CH2 TRP D   1      20.370 -14.862  39.240  1.00 39.74 LIG 0.00  A 
ENDBRANCH 28 29
ENDBRANCH 27 28
BRANCH 27 39
ATOM     39  N   TRP D   1      14.967 -15.045  35.923  1.00 33.45 LIG-0.07  N 
ATOM     40 H3   TRP D   1      14.184 -14.912  35.523  1.00 33.45 LIG 0.28  HD
ATOM     41 H2   TRP D   1      14.887 -15.696  36.525  1.00 33.45 LIG 0.28  HD
ATOM     42 H1   TRP D   1      15.574 -15.277  35.315  1.00 33.45 LIG 0.28  HD
ENDBRANCH 27 39
ENDBRANCH 1 27
TORSDOF 9
ENDMDL
MODEL 22
USER: ADFR SOLUTION from run 91
USER: SCORE 8.290373 LL:  -2.608 LR:  -5.682 RR:   0.000 FEB:  -2.997
USER: RMSD 3.934628
USER: SEED 90
USER: STATUS no improvement in best 17 clusters for 5 generations
USER: GENES 11
USER: genes 0 Translation |==|  0.48941 0.52991 0.58339
USER: genes 1 Rotation |==|  0.53442 0.23402 0.60372 0.90904
USER: genes 2 Torsion [N]-CA--C-[O] |==|  0.46051
USER: genes 3 Torsion [C]-N--CA-[CB] |==|  0.18410
USER: genes 4 Torsion [N]-CA--C-[OXT] |==|  0.99477
USER: genes 5 Torsion [N]-CA--CB-[CG] |==|  0.17972
USER: genes 6 Torsion [CA]-CB--CG-[CD1] |==|  0.78475
USER: genes 7 Torsion [N]-C--CA-[N] |==|  0.42340
USER: genes 8 Torsion [C]-CA--CB-[CG] |==|  0.67310
USER: genes 9 Torsion [CA]-CB--CG-[CD1] |==|  0.23998
USER: genes 10 Torsion [C]-CA--N-[H2] |==|  0.46615
ROOT
ATOM      1  C   TRP D   1      12.582  -9.923  37.342  1.00 35.88 LIG 0.25  C 
ATOM      2 O    TRP D   1      11.866 -10.494  36.442  1.00 38.57 LIG-0.27  OA
ATOM      3  N   PRO D   2      12.520  -8.730  37.789  1.00 34.89 LIG-0.34  N 
ATOM      4  CA  PRO D   2      11.468  -7.718  37.447  1.00 35.03 LIG 0.18  C 
ATOM      5  CB  PRO D   2      11.909  -6.560  38.298  1.00 35.34 LIG 0.04  C 
ATOM      6  CG  PRO D   2      12.410  -7.284  39.549  1.00 35.42 LIG 0.02  C 
ATOM      7  CD  PRO D   2      12.877  -8.657  39.197  1.00 35.14 LIG 0.13  C 
ENDROOT
BRANCH 4 8
ATOM      8  C   PRO D   2      11.177  -7.318  36.006  1.00 35.70 LIG 0.24  C 
ATOM      9 O    PRO D   2      10.184  -6.700  35.650  1.00 34.88 LIG-0.27  OA
ATOM     10  N   TRP D   3      12.189  -7.758  35.228  1.00 36.87 LIG-0.34  N 
ATOM     11 H    TRP D   3      12.943  -8.009  35.557  1.00 36.87 LIG 0.16  HD
BRANCH 10 12
ATOM     12  CA  TRP D   3      12.142  -7.867  33.728  1.00 37.56 LIG 0.19  C 
BRANCH 12 13
ATOM     13  C   TRP D   3      13.147  -8.720  32.867  1.00 38.92 LIG 0.20  C 
ATOM     14 OXT  TRP D   3      14.114  -9.364  33.393  1.00 41.38 LIG-0.65  OA
ATOM     15 O    TRP D   3      12.952  -8.704  31.556  1.00 40.06 LIG-0.65  OA
ENDBRANCH 12 13
BRANCH 12 16
ATOM     16  CB  TRP D   3      12.034  -6.429  33.098  1.00 36.55 LIG 0.08  C 
BRANCH 16 17
ATOM     17  CG  TRP D   3      13.290  -5.588  33.384  1.00 35.48 LIG-0.03  A 
ATOM     18  CD1 TRP D   3      13.613  -4.946  34.585  1.00 37.13 LIG 0.10  A 
ATOM     19  NE1 TRP D   3      14.815  -4.278  34.452  1.00 40.71 LIG-0.36  N 
ATOM     20 HE1  TRP D   3      15.194  -3.814  35.068  1.00 40.71 LIG 0.17  HD
ATOM     21  CE2 TRP D   3      15.316  -4.468  33.182  1.00 36.12 LIG 0.04  A 
ATOM     22  CD2 TRP D   3      14.370  -5.299  32.466  1.00 33.28 LIG-0.00  A 
ATOM     23  CZ2 TRP D   3      16.507  -3.961  32.601  1.00 34.49 LIG 0.03  A 
ATOM     24  CE3 TRP D   3      14.618  -5.627  31.109  1.00 31.46 LIG 0.01  A 
ATOM     25  CZ3 TRP D   3      15.802  -5.156  30.510  1.00 32.66 LIG 0.00  A 
ATOM     26  CH2 TRP D   3      16.748  -4.307  31.268  1.00 36.62 LIG 0.00  A 
ENDBRANCH 16 17
ENDBRANCH 12 16
ENDBRANCH 10 12
ENDBRANCH 4 8
BRANCH 1 27
ATOM     27  CA  TRP D   1      13.870 -10.626  37.872  1.00 34.78 LIG 0.28  C 
BRANCH 27 28
ATOM     28  CB  TRP D   1      15.088 -10.328  36.988  1.00 34.63 LIG 0.08  C 
BRANCH 28 29
ATOM     29  CG  TRP D   1      15.667 -11.621  36.338  1.00 37.87 LIG-0.03  A 
ATOM     30  CD1 TRP D   1      15.266 -12.221  35.145  1.00 40.68 LIG 0.10  A 
ATOM     31  NE1 TRP D   1      16.056 -13.323  34.886  1.00 42.18 LIG-0.36  N 
ATOM     32 HE1  TRP D   1      15.982 -13.841  34.204  1.00 42.18 LIG 0.17  HD
ATOM     33  CE2 TRP D   1      16.990 -13.458  35.903  1.00 41.11 LIG 0.04  A 
ATOM     34  CD2 TRP D   1      16.771 -12.412  36.830  1.00 38.74 LIG-0.00  A 
ATOM     35  CZ2 TRP D   1      18.022 -14.431  36.077  1.00 41.13 LIG 0.03  A 
ATOM     36  CE3 TRP D   1      17.626 -12.314  37.948  1.00 40.52 LIG 0.01  A 
ATOM     37  CZ3 TRP D   1      18.645 -13.284  38.125  1.00 41.02 LIG 0.00  A 
ATOM     38  CH2 TRP D   1      18.833 -14.319  37.183  1.00 39.74 LIG 0.00  A 
ENDBRANCH 28 29
ENDBRANCH 27 28
BRANCH 27 39
ATOM     39  N   TRP D   1      13.690 -12.122  37.961  1.00 33.45 LIG-0.07  N 
ATOM     40 H3   TRP D   1      13.148 -12.316  38.639  1.00 33.45 LIG 0.28  HD
ATOM     41 H2   TRP D   1      14.481 -12.509  38.094  1.00 33.45 LIG 0.28  HD
ATOM     42 H1   TRP D   1      13.336 -12.424  37.203  1.00 33.45 LIG 0.28  HD
ENDBRANCH 27 39
ENDBRANCH 1 27
TORSDOF 9
ENDMDL
MODEL 23
USER: ADFR SOLUTION from run 100
USER: SCORE 8.986152 LL:  -3.407 LR:  -5.579 RR:   0.000 FEB:  -2.894
USER: RMSD 3.764586
USER: SEED 99
USER: STATUS no improvement in best 15 clusters for 5 generations
USER: GENES 11
USER: genes 0 Translation |==|  0.50179 0.46025 0.58280
USER: genes 1 Rotation |==|  0.61235 0.42873 0.42371 0.97590
USER: genes 2 Torsion [N]-CA--C-[O] |==|  0.48600
USER: genes 3 Torsion [C]-N--CA-[CB] |==|  0.37036
USER: genes 4 Torsion [N]-CA--C-[OXT] |==|  0.92461
USER: genes 5 Torsion [N]-CA--CB-[CG] |==|  0.73435
USER: genes 6 Torsion [CA]-CB--CG-[CD1] |==|  0.90448
USER: genes 7 Torsion [N]-C--CA-[N] |==|  0.34583
USER: genes 8 Torsion [C]-CA--CB-[CG] |==|  0.27443
USER: genes 9 Torsion [CA]-CB--CG-[CD1] |==|  0.34958
USER: genes 10 Torsion [C]-CA--N-[H2] |==|  0.76919
ROOT
ATOM      1  C   TRP D   1      12.954 -12.013  37.324  1.00 35.88 LIG 0.25  C 
ATOM      2 O    TRP D   1      11.681 -11.847  37.373  1.00 38.57 LIG-0.27  OA
ATOM      3  N   PRO D   2      13.883 -11.300  37.830  1.00 34.89 LIG-0.34  N 
ATOM      4  CA  PRO D   2      13.691 -10.130  38.748  1.00 35.03 LIG 0.18  C 
ATOM      5  CB  PRO D   2      15.120  -9.753  39.021  1.00 35.34 LIG 0.04  C 
ATOM      6  CG  PRO D   2      15.785 -11.130  39.077  1.00 35.42 LIG 0.02  C 
ATOM      7  CD  PRO D   2      15.023 -12.103  38.240  1.00 35.14 LIG 0.13  C 
ENDROOT
BRANCH 4 8
ATOM      8  C   PRO D   2      12.827  -8.937  38.357  1.00 35.70 LIG 0.24  C 
ATOM      9 O    PRO D   2      12.568  -8.002  39.100  1.00 34.88 LIG-0.27  OA
ATOM     10  N   TRP D   3      12.422  -9.103  37.080  1.00 36.87 LIG-0.34  N 
ATOM     11 H    TRP D   3      12.792  -9.673  36.553  1.00 36.87 LIG 0.16  HD
BRANCH 10 12
ATOM     12  CA  TRP D   3      11.304  -8.341  36.422  1.00 37.56 LIG 0.19  C 
BRANCH 12 13
ATOM     13  C   TRP D   3       9.822  -8.860  36.305  1.00 38.92 LIG 0.20  C 
ATOM     14 OXT  TRP D   3       9.538 -10.104  36.285  1.00 41.38 LIG-0.65  OA
ATOM     15 O    TRP D   3       8.884  -7.930  36.195  1.00 40.06 LIG-0.65  OA
ENDBRANCH 12 13
BRANCH 12 16
ATOM     16  CB  TRP D   3      11.772  -7.835  35.007  1.00 36.55 LIG 0.08  C 
BRANCH 16 17
ATOM     17  CG  TRP D   3      12.291  -6.388  35.064  1.00 35.48 LIG-0.03  A 
ATOM     18  CD1 TRP D   3      11.817  -5.360  35.886  1.00 37.13 LIG 0.10  A 
ATOM     19  NE1 TRP D   3      12.525  -4.199  35.641  1.00 40.71 LIG-0.36  N 
ATOM     20 HE1  TRP D   3      12.391  -3.446  36.033  1.00 40.71 LIG 0.17  HD
ATOM     21  CE2 TRP D   3      13.479  -4.430  34.673  1.00 36.12 LIG 0.04  A 
ATOM     22  CD2 TRP D   3      13.362  -5.818  34.276  1.00 33.28 LIG-0.00  A 
ATOM     23  CZ2 TRP D   3      14.416  -3.530  34.103  1.00 34.49 LIG 0.03  A 
ATOM     24  CE3 TRP D   3      14.208  -6.325  33.256  1.00 31.46 LIG 0.01  A 
ATOM     25  CZ3 TRP D   3      15.161  -5.462  32.684  1.00 32.66 LIG 0.00  A 
ATOM     26  CH2 TRP D   3      15.255  -4.048  33.111  1.00 36.62 LIG 0.00  A 
ENDBRANCH 16 17
ENDBRANCH 12 16
ENDBRANCH 10 12
ENDBRANCH 4 8
BRANCH 1 27
ATOM     27  CA  TRP D   1      13.562 -13.079  36.361  1.00 34.78 LIG 0.28  C 
BRANCH 27 28
ATOM     28  CB  TRP D   1      13.161 -12.823  34.902  1.00 34.63 LIG 0.08  C 
BRANCH 28 29
ATOM     29  CG  TRP D   1      14.281 -12.085  34.109  1.00 37.87 LIG-0.03  A 
ATOM     30  CD1 TRP D   1      14.871 -12.483  32.910  1.00 40.68 LIG 0.10  A 
ATOM     31  NE1 TRP D   1      15.789 -11.536  32.503  1.00 42.18 LIG-0.36  N 
ATOM     32 HE1  TRP D   1      16.269 -11.580  31.791  1.00 42.18 LIG 0.17  HD
ATOM     33  CE2 TRP D   1      15.810 -10.501  33.426  1.00 41.11 LIG 0.04  A 
ATOM     34  CD2 TRP D   1      14.882 -10.816  34.447  1.00 38.74 LIG-0.00  A 
ATOM     35  CZ2 TRP D   1      16.583  -9.300  33.440  1.00 41.13 LIG 0.03  A 
ATOM     36  CE3 TRP D   1      14.696  -9.891  35.496  1.00 40.52 LIG 0.01  A 
ATOM     37  CZ3 TRP D   1      15.468  -8.702  35.513  1.00 41.02 LIG 0.00  A 
ATOM     38  CH2 TRP D   1      16.391  -8.421  34.482  1.00 39.74 LIG 0.00  A 
ENDBRANCH 28 29
ENDBRANCH 27 28
BRANCH 27 39
ATOM     39  N   TRP D   1      13.141 -14.477  36.741  1.00 33.45 LIG-0.07  N 
ATOM     40 H3   TRP D   1      12.299 -14.465  37.028  1.00 33.45 LIG 0.28  HD
ATOM     41 H2   TRP D   1      13.671 -14.782  37.388  1.00 33.45 LIG 0.28  HD
ATOM     42 H1   TRP D   1      13.204 -15.009  36.031  1.00 33.45 LIG 0.28  HD
ENDBRANCH 27 39
ENDBRANCH 1 27
TORSDOF 9
ENDMDL
MODEL 24
USER: ADFR SOLUTION from run 154
USER: SCORE 7.576278 LL:  -1.998 LR:  -5.579 RR:   0.000 FEB:  -2.894
USER: RMSD 2.980896
USER: SEED 153
USER: STATUS no improvement in best 17 clusters for 5 generations
USER: GENES 11
USER: genes 0 Translation |==|  0.56559 0.43184 0.60592
USER: genes 1 Rotation |==|  0.54331 0.36948 0.62581 0.96396
USER: genes 2 Torsion [N]-CA--C-[O] |==|  0.11142
USER: genes 3 Torsion [C]-N--CA-[CB] |==|  0.78737
USER: genes 4 Torsion [N]-CA--C-[OXT] |==|  0.96893
USER: genes 5 Torsion [N]-CA--CB-[CG] |==|  0.69690
USER: genes 6 Torsion [CA]-CB--CG-[CD1] |==|  0.85788
USER: genes 7 Torsion [N]-C--CA-[N] |==|  0.45054
USER: genes 8 Torsion [C]-CA--CB-[CG] |==|  0.77284
USER: genes 9 Torsion [CA]-CB--CG-[CD1] |==|  0.24799
USER: genes 10 Torsion [C]-CA--N-[H2] |==|  0.76815
ROOT
ATOM      1  C   TRP D   1      14.868 -12.865  38.017  1.00 35.88 LIG 0.25  C 
ATOM      2 O    TRP D   1      13.858 -13.602  37.724  1.00 38.57 LIG-0.27  OA
ATOM      3  N   PRO D   2      14.910 -11.619  38.286  1.00 34.89 LIG-0.34  N 
ATOM      4  CA  PRO D   2      13.724 -10.716  38.455  1.00 35.03 LIG 0.18  C 
ATOM      5  CB  PRO D   2      14.406  -9.420  38.789  1.00 35.34 LIG 0.04  C 
ATOM      6  CG  PRO D   2      15.578  -9.912  39.642  1.00 35.42 LIG 0.02  C 
ATOM      7  CD  PRO D   2      15.947 -11.304  39.254  1.00 35.14 LIG 0.13  C 
ENDROOT
BRANCH 4 8
ATOM      8  C   PRO D   2      12.666 -10.568  37.368  1.00 35.70 LIG 0.24  C 
ATOM      9 O    PRO D   2      12.238 -11.493  36.693  1.00 34.88 LIG-0.27  OA
ATOM     10  N   TRP D   3      12.304  -9.270  37.299  1.00 36.87 LIG-0.34  N 
ATOM     11 H    TRP D   3      12.492  -8.708  37.922  1.00 36.87 LIG 0.16  HD
BRANCH 10 12
ATOM     12  CA  TRP D   3      11.547  -8.643  36.159  1.00 37.56 LIG 0.19  C 
BRANCH 12 13
ATOM     13  C   TRP D   3      10.169  -9.171  35.611  1.00 38.92 LIG 0.20  C 
ATOM     14 OXT  TRP D   3       9.687 -10.300  35.959  1.00 41.38 LIG-0.65  OA
ATOM     15 O    TRP D   3       9.549  -8.389  34.738  1.00 40.06 LIG-0.65  OA
ENDBRANCH 12 13
BRANCH 12 16
ATOM     16  CB  TRP D   3      12.518  -8.415  34.942  1.00 36.55 LIG 0.08  C 
BRANCH 16 17
ATOM     17  CG  TRP D   3      12.821  -6.923  34.728  1.00 35.48 LIG-0.03  A 
ATOM     18  CD1 TRP D   3      11.888  -5.886  34.621  1.00 37.13 LIG 0.10  A 
ATOM     19  NE1 TRP D   3      12.542  -4.685  34.420  1.00 40.71 LIG-0.36  N 
ATOM     20 HE1  TRP D   3      12.157  -3.922  34.321  1.00 40.71 LIG 0.17  HD
ATOM     21  CE2 TRP D   3      13.904  -4.893  34.400  1.00 36.12 LIG 0.04  A 
ATOM     22  CD2 TRP D   3      14.125  -6.312  34.593  1.00 33.28 LIG-0.00  A 
ATOM     23  CZ2 TRP D   3      14.953  -3.957  34.209  1.00 34.49 LIG 0.03  A 
ATOM     24  CE3 TRP D   3      15.450  -6.819  34.580  1.00 31.46 LIG 0.01  A 
ATOM     25  CZ3 TRP D   3      16.514  -5.912  34.412  1.00 32.66 LIG 0.00  A 
ATOM     26  CH2 TRP D   3      16.255  -4.469  34.217  1.00 36.62 LIG 0.00  A 
ENDBRANCH 16 17
ENDBRANCH 12 16
ENDBRANCH 10 12
ENDBRANCH 4 8
BRANCH 1 27
ATOM     27  CA  TRP D   1      16.314 -13.423  37.842  1.00 34.78 LIG 0.28  C 
BRANCH 27 28
ATOM     28  CB  TRP D   1      16.921 -13.016  36.492  1.00 34.63 LIG 0.08  C 
BRANCH 28 29
ATOM     29  CG  TRP D   1      16.448 -13.947  35.335  1.00 37.87 LIG-0.03  A 
ATOM     30  CD1 TRP D   1      15.321 -13.789  34.530  1.00 40.68 LIG 0.10  A 
ATOM     31  NE1 TRP D   1      15.275 -14.797  33.587  1.00 42.18 LIG-0.36  N 
ATOM     32 HE1  TRP D   1      14.663 -14.893  32.990  1.00 42.18 LIG 0.17  HD
ATOM     33  CE2 TRP D   1      16.372 -15.627  33.758  1.00 41.11 LIG 0.04  A 
ATOM     34  CD2 TRP D   1      17.124 -15.127  34.847  1.00 38.74 LIG-0.00  A 
ATOM     35  CZ2 TRP D   1      16.764 -16.791  33.029  1.00 41.13 LIG 0.03  A 
ATOM     36  CE3 TRP D   1      18.320 -15.788  35.199  1.00 40.52 LIG 0.01  A 
ATOM     37  CZ3 TRP D   1      18.705 -16.947  34.480  1.00 41.02 LIG 0.00  A 
ATOM     38  CH2 TRP D   1      17.928 -17.424  33.402  1.00 39.74 LIG 0.00  A 
ENDBRANCH 28 29
ENDBRANCH 27 28
BRANCH 27 39
ATOM     39  N   TRP D   1      16.348 -14.927  37.954  1.00 33.45 LIG-0.07  N 
ATOM     40 H3   TRP D   1      15.613 -15.269  37.585  1.00 33.45 LIG 0.28  HD
ATOM     41 H2   TRP D   1      16.385 -15.161  38.812  1.00 33.45 LIG 0.28  HD
ATOM     42 H1   TRP D   1      17.065 -15.241  37.531  1.00 33.45 LIG 0.28  HD
ENDBRANCH 27 39
ENDBRANCH 1 27
TORSDOF 9
ENDMDL
MODEL 25
USER: ADFR SOLUTION from run 17
USER: SCORE 7.691632 LL:  -2.171 LR:  -5.521 RR:   0.000 FEB:  -2.836
USER: RMSD 3.193685
USER: SEED 16
USER: STATUS no improvement in best 27 clusters for 5 generations
USER: GENES 11
USER: genes 0 Translation |==|  0.55422 0.45712 0.63585
USER: genes 1 Rotation |==|  0.40828 0.56315 0.47555 0.98683
USER: genes 2 Torsion [N]-CA--C-[O] |==|  0.28680
USER: genes 3 Torsion [C]-N--CA-[CB] |==|  0.39382
USER: genes 4 Torsion [N]-CA--C-[OXT] |==|  0.28726
USER: genes 5 Torsion [N]-CA--CB-[CG] |==|  0.78546
USER: genes 6 Torsion [CA]-CB--CG-[CD1] |==|  0.86431
USER: genes 7 Torsion [N]-C--CA-[N] |==|  0.37949
USER: genes 8 Torsion [C]-CA--CB-[CG] |==|  0.46928
USER: genes 9 Torsion [CA]-CB--CG-[CD1] |==|  0.39539
USER: genes 10 Torsion [C]-CA--N-[H2] |==|  0.75576
ROOT
ATOM      1  C   TRP D   1      14.527 -12.106  38.916  1.00 35.88 LIG 0.25  C 
ATOM      2 O    TRP D   1      13.463 -11.909  39.608  1.00 38.57 LIG-0.27  OA
ATOM      3  N   PRO D   2      15.210 -11.279  38.227  1.00 34.89 LIG-0.34  N 
ATOM      4  CA  PRO D   2      14.995  -9.796  38.169  1.00 35.03 LIG 0.18  C 
ATOM      5  CB  PRO D   2      16.109  -9.388  37.247  1.00 35.34 LIG 0.04  C 
ATOM      6  CG  PRO D   2      17.219 -10.349  37.679  1.00 35.42 LIG 0.02  C 
ATOM      7  CD  PRO D   2      16.628 -11.600  38.237  1.00 35.14 LIG 0.13  C 
ENDROOT
BRANCH 4 8
ATOM      8  C   PRO D   2      13.650  -9.194  37.778  1.00 35.70 LIG 0.24  C 
ATOM      9 O    PRO D   2      12.854  -8.714  38.571  1.00 34.88 LIG-0.27  OA
ATOM     10  N   TRP D   3      13.515  -9.287  36.438  1.00 36.87 LIG-0.34  N 
ATOM     11 H    TRP D   3      14.182  -9.452  35.921  1.00 36.87 LIG 0.16  HD
BRANCH 10 12
ATOM     12  CA  TRP D   3      12.222  -9.120  35.686  1.00 37.56 LIG 0.19  C 
BRANCH 12 13
ATOM     13  C   TRP D   3      11.201 -10.285  35.404  1.00 38.92 LIG 0.20  C 
ATOM     14 OXT  TRP D   3      10.115 -10.410  36.063  1.00 41.38 LIG-0.65  OA
ATOM     15 O    TRP D   3      11.549 -11.152  34.464  1.00 40.06 LIG-0.65  OA
ENDBRANCH 12 13
BRANCH 12 16
ATOM     16  CB  TRP D   3      12.490  -8.350  34.340  1.00 36.55 LIG 0.08  C 
BRANCH 16 17
ATOM     17  CG  TRP D   3      12.673  -6.841  34.575  1.00 35.48 LIG-0.03  A 
ATOM     18  CD1 TRP D   3      11.842  -6.005  35.328  1.00 37.13 LIG 0.10  A 
ATOM     19  NE1 TRP D   3      12.325  -4.710  35.295  1.00 40.71 LIG-0.36  N 
ATOM     20 HE1  TRP D   3      11.961  -4.036  35.686  1.00 40.71 LIG 0.17  HD
ATOM     21  CE2 TRP D   3      13.477  -4.662  34.540  1.00 36.12 LIG 0.04  A 
ATOM     22  CD2 TRP D   3      13.734  -6.004  34.061  1.00 33.28 LIG-0.00  A 
ATOM     23  CZ2 TRP D   3      14.298  -3.548  34.225  1.00 34.49 LIG 0.03  A 
ATOM     24  CE3 TRP D   3      14.851  -6.242  33.219  1.00 31.46 LIG 0.01  A 
ATOM     25  CZ3 TRP D   3      15.696  -5.160  32.905  1.00 32.66 LIG 0.00  A 
ATOM     26  CH2 TRP D   3      15.406  -3.801  33.410  1.00 36.62 LIG 0.00  A 
ENDBRANCH 16 17
ENDBRANCH 12 16
ENDBRANCH 10 12
ENDBRANCH 4 8
BRANCH 1 27
ATOM     27  CA  TRP D   1      15.013 -13.563  38.638  1.00 34.78 LIG 0.28  C 
BRANCH 27 28
ATOM     28  CB  TRP D   1      14.077 -14.302  37.672  1.00 34.63 LIG 0.08  C 
BRANCH 28 29
ATOM     29  CG  TRP D   1      14.692 -15.644  37.175  1.00 37.87 LIG-0.03  A 
ATOM     30  CD1 TRP D   1      14.025 -16.846  36.945  1.00 40.68 LIG 0.10  A 
ATOM     31  NE1 TRP D   1      14.911 -17.789  36.463  1.00 42.18 LIG-0.36  N 
ATOM     32 HE1  TRP D   1      14.713 -18.600  36.257  1.00 42.18 LIG 0.17  HD
ATOM     33  CE2 TRP D   1      16.170 -17.218  36.367  1.00 41.11 LIG 0.04  A 
ATOM     34  CD2 TRP D   1      16.070 -15.877  36.809  1.00 38.74 LIG-0.00  A 
ATOM     35  CZ2 TRP D   1      17.403 -17.784  35.918  1.00 41.13 LIG 0.03  A 
ATOM     36  CE3 TRP D   1      17.225 -15.068  36.773  1.00 40.52 LIG 0.01  A 
ATOM     37  CZ3 TRP D   1      18.450 -15.632  36.334  1.00 41.02 LIG 0.00  A 
ATOM     38  CH2 TRP D   1      18.517 -16.976  35.905  1.00 39.74 LIG 0.00  A 
ENDBRANCH 28 29
ENDBRANCH 27 28
BRANCH 27 39
ATOM     39  N   TRP D   1      15.125 -14.364  39.911  1.00 33.45 LIG-0.07  N 
ATOM     40 H3   TRP D   1      14.506 -14.091  40.490  1.00 33.45 LIG 0.28  HD
ATOM     41 H2   TRP D   1      15.933 -14.249  40.265  1.00 33.45 LIG 0.28  HD
ATOM     42 H1   TRP D   1      15.001 -15.227  39.731  1.00 33.45 LIG 0.28  HD
ENDBRANCH 27 39
ENDBRANCH 1 27
TORSDOF 9
ENDMDL
MODEL 26
USER: ADFR SOLUTION from run 81
USER: SCORE 7.930902 LL:  -2.450 LR:  -5.480 RR:   0.000 FEB:  -2.796
USER: RMSD 4.647763
USER: SEED 80
USER: STATUS no improvement in best 23 clusters for 5 generations
USER: GENES 11
USER: genes 0 Translation |==|  0.47535 0.45702 0.57630
USER: genes 1 Rotation |==|  0.46408 0.23863 0.42664 0.91835
USER: genes 2 Torsion [N]-CA--C-[O] |==|  0.28341
USER: genes 3 Torsion [C]-N--CA-[CB] |==|  0.41765
USER: genes 4 Torsion [N]-CA--C-[OXT] |==|  0.02883
USER: genes 5 Torsion [N]-CA--CB-[CG] |==|  0.72674
USER: genes 6 Torsion [CA]-CB--CG-[CD1] |==|  0.49291
USER: genes 7 Torsion [N]-C--CA-[N] |==|  0.47477
USER: genes 8 Torsion [C]-CA--CB-[CG] |==|  0.30889
USER: genes 9 Torsion [CA]-CB--CG-[CD1] |==|  0.66195
USER: genes 10 Torsion [C]-CA--N-[H2] |==|  0.67470
ROOT
ATOM      1  C   TRP D   1      12.161 -12.110  37.129  1.00 35.88 LIG 0.25  C 
ATOM      2 O    TRP D   1      11.273 -11.908  36.223  1.00 38.57 LIG-0.27  OA
ATOM      3  N   PRO D   2      12.918 -11.271  37.721  1.00 34.89 LIG-0.34  N 
ATOM      4  CA  PRO D   2      12.853  -9.779  37.583  1.00 35.03 LIG 0.18  C 
ATOM      5  CB  PRO D   2      13.942  -9.365  38.532  1.00 35.34 LIG 0.04  C 
ATOM      6  CG  PRO D   2      13.777 -10.401  39.646  1.00 35.42 LIG 0.02  C 
ATOM      7  CD  PRO D   2      13.189 -11.657  39.096  1.00 35.14 LIG 0.13  C 
ENDROOT
BRANCH 4 8
ATOM      8  C   PRO D   2      12.954  -9.093  36.226  1.00 35.70 LIG 0.24  C 
ATOM      9 O    PRO D   2      11.999  -8.648  35.608  1.00 34.88 LIG-0.27  OA
ATOM     10  N   TRP D   3      14.252  -9.069  35.856  1.00 36.87 LIG-0.34  N 
ATOM     11 H    TRP D   3      14.890  -9.217  36.413  1.00 36.87 LIG 0.16  HD
BRANCH 10 12
ATOM     12  CA  TRP D   3      14.748  -8.788  34.463  1.00 37.56 LIG 0.19  C 
BRANCH 12 13
ATOM     13  C   TRP D   3      14.749  -9.838  33.291  1.00 38.92 LIG 0.20  C 
ATOM     14 OXT  TRP D   3      14.147 -10.960  33.384  1.00 41.38 LIG-0.65  OA
ATOM     15 O    TRP D   3      15.441  -9.507  32.210  1.00 40.06 LIG-0.65  OA
ENDBRANCH 12 13
BRANCH 12 16
ATOM     16  CB  TRP D   3      16.168  -8.113  34.536  1.00 36.55 LIG 0.08  C 
BRANCH 16 17
ATOM     17  CG  TRP D   3      16.079  -6.584  34.395  1.00 35.48 LIG-0.03  A 
ATOM     18  CD1 TRP D   3      17.140  -5.674  34.465  1.00 37.13 LIG 0.10  A 
ATOM     19  NE1 TRP D   3      16.664  -4.387  34.306  1.00 40.71 LIG-0.36  N 
ATOM     20 HE1  TRP D   3      17.147  -3.675  34.321  1.00 40.71 LIG 0.17  HD
ATOM     21  CE2 TRP D   3      15.299  -4.414  34.118  1.00 36.12 LIG 0.04  A 
ATOM     22  CD2 TRP D   3      14.885  -5.801  34.170  1.00 33.28 LIG-0.00  A 
ATOM     23  CZ2 TRP D   3      14.397  -3.335  33.928  1.00 34.49 LIG 0.03  A 
ATOM     24  CE3 TRP D   3      13.510  -6.123  34.040  1.00 31.46 LIG 0.01  A 
ATOM     25  CZ3 TRP D   3      12.592  -5.076  33.832  1.00 32.66 LIG 0.00  A 
ATOM     26  CH2 TRP D   3      13.046  -3.669  33.785  1.00 36.62 LIG 0.00  A 
ENDBRANCH 16 17
ENDBRANCH 12 16
ENDBRANCH 10 12
ENDBRANCH 4 8
BRANCH 1 27
ATOM     27  CA  TRP D   1      12.603 -13.566  37.473  1.00 34.78 LIG 0.28  C 
BRANCH 27 28
ATOM     28  CB  TRP D   1      13.981 -13.897  36.883  1.00 34.63 LIG 0.08  C 
BRANCH 28 29
ATOM     29  CG  TRP D   1      15.067 -14.057  37.988  1.00 37.87 LIG-0.03  A 
ATOM     30  CD1 TRP D   1      16.252 -13.335  38.121  1.00 40.68 LIG 0.10  A 
ATOM     31  NE1 TRP D   1      16.923 -13.740  39.258  1.00 42.18 LIG-0.36  N 
ATOM     32 HE1  TRP D   1      17.676 -13.428  39.530  1.00 42.18 LIG 0.17  HD
ATOM     33  CE2 TRP D   1      16.185 -14.731  39.889  1.00 41.11 LIG 0.04  A 
ATOM     34  CD2 TRP D   1      15.020 -14.957  39.118  1.00 38.74 LIG-0.00  A 
ATOM     35  CZ2 TRP D   1      16.457 -15.451  41.092  1.00 41.13 LIG 0.03  A 
ATOM     36  CE3 TRP D   1      14.083 -15.907  39.576  1.00 40.52 LIG 0.01  A 
ATOM     37  CZ3 TRP D   1      14.357 -16.627  40.767  1.00 41.02 LIG 0.00  A 
ATOM     38  CH2 TRP D   1      15.533 -16.381  41.510  1.00 39.74 LIG 0.00  A 
ENDBRANCH 28 29
ENDBRANCH 27 28
BRANCH 27 39
ATOM     39  N   TRP D   1      11.606 -14.583  36.975  1.00 33.45 LIG-0.07  N 
ATOM     40 H3   TRP D   1      10.956 -14.168  36.531  1.00 33.45 LIG 0.28  HD
ATOM     41 H2   TRP D   1      11.260 -15.023  37.667  1.00 33.45 LIG 0.28  HD
ATOM     42 H1   TRP D   1      12.015 -15.158  36.432  1.00 33.45 LIG 0.28  HD
ENDBRANCH 27 39
ENDBRANCH 1 27
TORSDOF 9
ENDMDL
MODEL 27
USER: ADFR SOLUTION from run 77
USER: SCORE 8.868361 LL:  -3.387 LR:  -5.482 RR:   0.000 FEB:  -2.797
USER: RMSD 3.657078
USER: SEED 76
USER: STATUS no improvement in best 5 clusters for 5 generations
USER: GENES 11
USER: genes 0 Translation |==|  0.51688 0.49838 0.58696
USER: genes 1 Rotation |==|  0.53985 0.33719 0.67582 0.93703
USER: genes 2 Torsion [N]-CA--C-[O] |==|  0.33051
USER: genes 3 Torsion [C]-N--CA-[CB] |==|  0.58590
USER: genes 4 Torsion [N]-CA--C-[OXT] |==|  0.87155
USER: genes 5 Torsion [N]-CA--CB-[CG] |==|  0.80034
USER: genes 6 Torsion [CA]-CB--CG-[CD1] |==|  0.80838
USER: genes 7 Torsion [N]-C--CA-[N] |==|  0.47966
USER: genes 8 Torsion [C]-CA--CB-[CG] |==|  0.73016
USER: genes 9 Torsion [CA]-CB--CG-[CD1] |==|  0.72129
USER: genes 10 Torsion [C]-CA--N-[H2] |==|  0.78637
ROOT
ATOM      1  C   TRP D   1      13.406 -10.868  37.449  1.00 35.88 LIG 0.25  C 
ATOM      2 O    TRP D   1      12.624 -11.793  37.022  1.00 38.57 LIG-0.27  OA
ATOM      3  N   PRO D   2      13.159  -9.637  37.670  1.00 34.89 LIG-0.34  N 
ATOM      4  CA  PRO D   2      11.810  -8.987  37.606  1.00 35.03 LIG 0.18  C 
ATOM      5  CB  PRO D   2      12.160  -7.579  37.996  1.00 35.34 LIG 0.04  C 
ATOM      6  CG  PRO D   2      13.243  -7.823  39.050  1.00 35.42 LIG 0.02  C 
ATOM      7  CD  PRO D   2      13.936  -9.117  38.784  1.00 35.14 LIG 0.13  C 
ENDROOT
BRANCH 4 8
ATOM      8  C   PRO D   2      10.944  -9.058  36.354  1.00 35.70 LIG 0.24  C 
ATOM      9 O    PRO D   2       9.834  -9.569  36.313  1.00 34.88 LIG-0.27  OA
ATOM     10  N   TRP D   3      11.610  -8.466  35.340  1.00 36.87 LIG-0.34  N 
ATOM     11 H    TRP D   3      12.290  -7.958  35.474  1.00 36.87 LIG 0.16  HD
BRANCH 10 12
ATOM     12  CA  TRP D   3      11.267  -8.608  33.881  1.00 37.56 LIG 0.19  C 
BRANCH 12 13
ATOM     13  C   TRP D   3      10.369  -9.756  33.287  1.00 38.92 LIG 0.20  C 
ATOM     14 OXT  TRP D   3      10.532 -10.981  33.608  1.00 41.38 LIG-0.65  OA
ATOM     15 O    TRP D   3       9.453  -9.384  32.404  1.00 40.06 LIG-0.65  OA
ENDBRANCH 12 13
BRANCH 12 16
ATOM     16  CB  TRP D   3      12.579  -8.497  33.018  1.00 36.55 LIG 0.08  C 
BRANCH 16 17
ATOM     17  CG  TRP D   3      13.118  -7.057  32.988  1.00 35.48 LIG-0.03  A 
ATOM     18  CD1 TRP D   3      12.531  -5.957  32.354  1.00 37.13 LIG 0.10  A 
ATOM     19  NE1 TRP D   3      13.318  -4.835  32.537  1.00 40.71 LIG-0.36  N 
ATOM     20 HE1  TRP D   3      13.145  -4.053  32.225  1.00 40.71 LIG 0.17  HD
ATOM     21  CE2 TRP D   3      14.423  -5.159  33.295  1.00 36.12 LIG 0.04  A 
ATOM     22  CD2 TRP D   3      14.334  -6.572  33.603  1.00 33.28 LIG-0.00  A 
ATOM     23  CZ2 TRP D   3      15.498  -4.334  33.714  1.00 34.49 LIG 0.03  A 
ATOM     24  CE3 TRP D   3      15.370  -7.189  34.350  1.00 31.46 LIG 0.01  A 
ATOM     25  CZ3 TRP D   3      16.441  -6.392  34.798  1.00 32.66 LIG 0.00  A 
ATOM     26  CH2 TRP D   3      16.503  -4.952  34.465  1.00 36.62 LIG 0.00  A 
ENDBRANCH 16 17
ENDBRANCH 12 16
ENDBRANCH 10 12
ENDBRANCH 4 8
BRANCH 1 27
ATOM     27  CA  TRP D   1      14.942 -11.130  37.536  1.00 34.78 LIG 0.28  C 
BRANCH 27 28
ATOM     28  CB  TRP D   1      15.709 -10.399  36.425  1.00 34.63 LIG 0.08  C 
BRANCH 28 29
ATOM     29  CG  TRP D   1      16.009 -11.331  35.213  1.00 37.87 LIG-0.03  A 
ATOM     30  CD1 TRP D   1      17.208 -11.979  34.921  1.00 40.68 LIG 0.10  A 
ATOM     31  NE1 TRP D   1      17.059 -12.752  33.787  1.00 42.18 LIG-0.36  N 
ATOM     32 HE1  TRP D   1      17.673 -13.234  33.428  1.00 42.18 LIG 0.17  HD
ATOM     33  CE2 TRP D   1      15.759 -12.624  33.321  1.00 41.11 LIG 0.04  A 
ATOM     34  CD2 TRP D   1      15.077 -11.737  34.187  1.00 38.74 LIG-0.00  A 
ATOM     35  CZ2 TRP D   1      15.126 -13.228  32.192  1.00 41.13 LIG 0.03  A 
ATOM     36  CE3 TRP D   1      13.713 -11.470  33.940  1.00 40.52 LIG 0.01  A 
ATOM     37  CZ3 TRP D   1      13.087 -12.065  32.815  1.00 41.02 LIG 0.00  A 
ATOM     38  CH2 TRP D   1      13.799 -12.940  31.965  1.00 39.74 LIG 0.00  A 
ENDBRANCH 28 29
ENDBRANCH 27 28
BRANCH 27 39
ATOM     39  N   TRP D   1      15.262 -12.602  37.456  1.00 33.45 LIG-0.07  N 
ATOM     40 H3   TRP D   1      14.767 -12.979  36.820  1.00 33.45 LIG 0.28  HD
ATOM     41 H2   TRP D   1      15.083 -12.988  38.238  1.00 33.45 LIG 0.28  HD
ATOM     42 H1   TRP D   1      16.124 -12.709  37.263  1.00 33.45 LIG 0.28  HD
ENDBRANCH 27 39
ENDBRANCH 1 27
TORSDOF 9
ENDMDL
MODEL 28
USER: ADFR SOLUTION from run 42
USER: SCORE 7.975319 LL:  -2.550 LR:  -5.425 RR:   0.000 FEB:  -2.741
USER: RMSD 3.604532
USER: SEED 41
USER: STATUS no improvement in best 7 clusters for 5 generations
USER: GENES 11
USER: genes 0 Translation |==|  0.47450 0.45773 0.58055
USER: genes 1 Rotation |==|  0.54574 0.31758 0.45488 0.96108
USER: genes 2 Torsion [N]-CA--C-[O] |==|  0.21075
USER: genes 3 Torsion [C]-N--CA-[CB] |==|  0.62311
USER: genes 4 Torsion [N]-CA--C-[OXT] |==|  0.70949
USER: genes 5 Torsion [N]-CA--CB-[CG] |==|  0.56127
USER: genes 6 Torsion [CA]-CB--CG-[CD1] |==|  0.05011
USER: genes 7 Torsion [N]-C--CA-[N] |==|  0.37571
USER: genes 8 Torsion [C]-CA--CB-[CG] |==|  0.31225
USER: genes 9 Torsion [CA]-CB--CG-[CD1] |==|  0.28233
USER: genes 10 Torsion [C]-CA--N-[H2] |==|  0.69542
ROOT
ATOM      1  C   TRP D   1      12.135 -12.088  37.256  1.00 35.88 LIG 0.25  C 
ATOM      2 O    TRP D   1      10.971 -11.968  36.728  1.00 38.57 LIG-0.27  OA
ATOM      3  N   PRO D   2      12.848 -11.214  37.851  1.00 34.89 LIG-0.34  N 
ATOM      4  CA  PRO D   2      12.419  -9.820  38.200  1.00 35.03 LIG 0.18  C 
ATOM      5  CB  PRO D   2      13.648  -9.318  38.902  1.00 35.34 LIG 0.04  C 
ATOM      6  CG  PRO D   2      14.101 -10.576  39.647  1.00 35.42 LIG 0.02  C 
ATOM      7  CD  PRO D   2      13.648 -11.796  38.917  1.00 35.14 LIG 0.13  C 
ENDROOT
BRANCH 4 8
ATOM      8  C   PRO D   2      11.900  -8.852  37.144  1.00 35.70 LIG 0.24  C 
ATOM      9 O    PRO D   2      10.785  -8.907  36.648  1.00 34.88 LIG-0.27  OA
ATOM     10  N   TRP D   3      12.871  -7.953  36.875  1.00 36.87 LIG-0.34  N 
ATOM     11 H    TRP D   3      13.552  -7.847  37.390  1.00 36.87 LIG 0.16  HD
BRANCH 10 12
ATOM     12  CA  TRP D   3      12.899  -7.043  35.677  1.00 37.56 LIG 0.19  C 
BRANCH 12 13
ATOM     13  C   TRP D   3      11.850  -7.084  34.505  1.00 38.92 LIG 0.20  C 
ATOM     14 OXT  TRP D   3      12.124  -7.588  33.365  1.00 41.38 LIG-0.65  OA
ATOM     15 O    TRP D   3      10.670  -6.534  34.757  1.00 40.06 LIG-0.65  OA
ENDBRANCH 12 13
BRANCH 12 16
ATOM     16  CB  TRP D   3      14.346  -7.032  35.057  1.00 36.55 LIG 0.08  C 
BRANCH 16 17
ATOM     17  CG  TRP D   3      14.594  -5.768  34.216  1.00 35.48 LIG-0.03  A 
ATOM     18  CD1 TRP D   3      13.863  -4.576  34.260  1.00 37.13 LIG 0.10  A 
ATOM     19  NE1 TRP D   3      14.379  -3.675  33.348  1.00 40.71 LIG-0.36  N 
ATOM     20 HE1  TRP D   3      14.075  -2.884  33.208  1.00 40.71 LIG 0.17  HD
ATOM     21  CE2 TRP D   3      15.456  -4.237  32.695  1.00 36.12 LIG 0.04  A 
ATOM     22  CD2 TRP D   3      15.626  -5.576  33.220  1.00 33.28 LIG-0.00  A 
ATOM     23  CZ2 TRP D   3      16.275  -3.687  31.676  1.00 34.49 LIG 0.03  A 
ATOM     24  CE3 TRP D   3      16.650  -6.406  32.696  1.00 31.46 LIG 0.01  A 
ATOM     25  CZ3 TRP D   3      17.493  -5.881  31.697  1.00 32.66 LIG 0.00  A 
ATOM     26  CH2 TRP D   3      17.292  -4.510  31.181  1.00 36.62 LIG 0.00  A 
ENDBRANCH 16 17
ENDBRANCH 12 16
ENDBRANCH 10 12
ENDBRANCH 4 8
BRANCH 1 27
ATOM     27  CA  TRP D   1      12.973 -13.381  37.006  1.00 34.78 LIG 0.28  C 
BRANCH 27 28
ATOM     28  CB  TRP D   1      13.439 -13.484  35.548  1.00 34.63 LIG 0.08  C 
BRANCH 28 29
ATOM     29  CG  TRP D   1      14.985 -13.336  35.417  1.00 37.87 LIG-0.03  A 
ATOM     30  CD1 TRP D   1      15.919 -14.354  35.236  1.00 40.68 LIG 0.10  A 
ATOM     31  NE1 TRP D   1      17.184 -13.813  35.117  1.00 42.18 LIG-0.36  N 
ATOM     32 HE1  TRP D   1      17.909 -14.261  35.001  1.00 42.18 LIG 0.17  HD
ATOM     33  CE2 TRP D   1      17.096 -12.433  35.215  1.00 41.11 LIG 0.04  A 
ATOM     34  CD2 TRP D   1      15.734 -12.101  35.408  1.00 38.74 LIG-0.00  A 
ATOM     35  CZ2 TRP D   1      18.122 -11.441  35.146  1.00 41.13 LIG 0.03  A 
ATOM     36  CE3 TRP D   1      15.380 -10.738  35.503  1.00 40.52 LIG 0.01  A 
ATOM     37  CZ3 TRP D   1      16.400  -9.755  35.442  1.00 41.02 LIG 0.00  A 
ATOM     38  CH2 TRP D   1      17.751 -10.120  35.255  1.00 39.74 LIG 0.00  A 
ENDBRANCH 28 29
ENDBRANCH 27 28
BRANCH 27 39
ATOM     39  N   TRP D   1      12.193 -14.625  37.354  1.00 33.45 LIG-0.07  N 
ATOM     40 H3   TRP D   1      11.342 -14.411  37.499  1.00 33.45 LIG 0.28  HD
ATOM     41 H2   TRP D   1      12.535 -14.995  38.088  1.00 33.45 LIG 0.28  HD
ATOM     42 H1   TRP D   1      12.242 -15.204  36.680  1.00 33.45 LIG 0.28  HD
ENDBRANCH 27 39
ENDBRANCH 1 27
TORSDOF 9
ENDMDL
MODEL 29
USER: ADFR SOLUTION from run 119
USER: SCORE 8.445646 LL:  -3.033 LR:  -5.412 RR:   0.000 FEB:  -2.728
USER: RMSD 3.927947
USER: SEED 118
USER: STATUS no improvement in best 7 clusters for 5 generations
USER: GENES 11
USER: genes 0 Translation |==|  0.45964 0.51003 0.56428
USER: genes 1 Rotation |==|  0.53094 0.33847 0.45307 0.96984
USER: genes 2 Torsion [N]-CA--C-[O] |==|  0.22288
USER: genes 3 Torsion [C]-N--CA-[CB] |==|  0.45293
USER: genes 4 Torsion [N]-CA--C-[OXT] |==|  0.03243
USER: genes 5 Torsion [N]-CA--CB-[CG] |==|  0.20574
USER: genes 6 Torsion [CA]-CB--CG-[CD1] |==|  0.44027
USER: genes 7 Torsion [N]-C--CA-[N] |==|  0.46418
USER: genes 8 Torsion [C]-CA--CB-[CG] |==|  0.42325
USER: genes 9 Torsion [CA]-CB--CG-[CD1] |==|  0.28596
USER: genes 10 Torsion [C]-CA--N-[H2] |==|  0.68890
ROOT
ATOM      1  C   TRP D   1      11.689 -10.519  36.768  1.00 35.88 LIG 0.25  C 
ATOM      2 O    TRP D   1      10.482 -10.401  36.348  1.00 38.57 LIG-0.27  OA
ATOM      3  N   PRO D   2      12.469  -9.632  37.249  1.00 34.89 LIG-0.34  N 
ATOM      4  CA  PRO D   2      12.097  -8.215  37.570  1.00 35.03 LIG 0.18  C 
ATOM      5  CB  PRO D   2      13.395  -7.705  38.127  1.00 35.34 LIG 0.04  C 
ATOM      6  CG  PRO D   2      13.899  -8.936  38.885  1.00 35.42 LIG 0.02  C 
ATOM      7  CD  PRO D   2      13.359 -10.179  38.261  1.00 35.14 LIG 0.13  C 
ENDROOT
BRANCH 4 8
ATOM      8  C   PRO D   2      11.494  -7.287  36.522  1.00 35.70 LIG 0.24  C 
ATOM      9 O    PRO D   2      10.317  -7.293  36.193  1.00 34.88 LIG-0.27  OA
ATOM     10  N   TRP D   3      12.471  -6.486  36.049  1.00 36.87 LIG-0.34  N 
ATOM     11 H    TRP D   3      13.225  -6.395  36.454  1.00 36.87 LIG 0.16  HD
BRANCH 10 12
ATOM     12  CA  TRP D   3      12.384  -5.666  34.790  1.00 37.56 LIG 0.19  C 
BRANCH 12 13
ATOM     13  C   TRP D   3      12.289  -6.272  33.340  1.00 38.92 LIG 0.20  C 
ATOM     14 OXT  TRP D   3      12.061  -7.511  33.135  1.00 41.38 LIG-0.65  OA
ATOM     15 O    TRP D   3      12.493  -5.428  32.339  1.00 40.06 LIG-0.65  OA
ENDBRANCH 12 13
BRANCH 12 16
ATOM     16  CB  TRP D   3      13.505  -4.562  34.801  1.00 36.55 LIG 0.08  C 
BRANCH 16 17
ATOM     17  CG  TRP D   3      14.895  -5.160  34.529  1.00 35.48 LIG-0.03  A 
ATOM     18  CD1 TRP D   3      16.023  -4.478  34.059  1.00 37.13 LIG 0.10  A 
ATOM     19  NE1 TRP D   3      17.082  -5.357  33.928  1.00 40.71 LIG-0.36  N 
ATOM     20 HE1  TRP D   3      17.867  -5.147  33.648  1.00 40.71 LIG 0.17  HD
ATOM     21  CE2 TRP D   3      16.689  -6.621  34.313  1.00 36.12 LIG 0.04  A 
ATOM     22  CD2 TRP D   3      15.297  -6.539  34.703  1.00 33.28 LIG-0.00  A 
ATOM     23  CZ2 TRP D   3      17.436  -7.827  34.329  1.00 34.49 LIG 0.03  A 
ATOM     24  CE3 TRP D   3      14.618  -7.714  35.115  1.00 31.46 LIG 0.01  A 
ATOM     25  CZ3 TRP D   3      15.337  -8.924  35.161  1.00 32.66 LIG 0.00  A 
ATOM     26  CH2 TRP D   3      16.758  -8.974  34.754  1.00 36.62 LIG 0.00  A 
ENDBRANCH 16 17
ENDBRANCH 12 16
ENDBRANCH 10 12
ENDBRANCH 4 8
BRANCH 1 27
ATOM     27  CA  TRP D   1      12.479 -11.838  36.502  1.00 34.78 LIG 0.28  C 
BRANCH 27 28
ATOM     28  CB  TRP D   1      13.444 -11.695  35.318  1.00 34.63 LIG 0.08  C 
BRANCH 28 29
ATOM     29  CG  TRP D   1      14.670 -12.649  35.445  1.00 37.87 LIG-0.03  A 
ATOM     30  CD1 TRP D   1      14.883 -13.847  34.764  1.00 40.68 LIG 0.10  A 
ATOM     31  NE1 TRP D   1      16.110 -14.373  35.116  1.00 42.18 LIG-0.36  N 
ATOM     32 HE1  TRP D   1      16.442 -15.108  34.816  1.00 42.18 LIG 0.17  HD
ATOM     33  CE2 TRP D   1      16.721 -13.526  36.028  1.00 41.11 LIG 0.04  A 
ATOM     34  CD2 TRP D   1      15.844 -12.440  36.260  1.00 38.74 LIG-0.00  A 
ATOM     35  CZ2 TRP D   1      17.991 -13.634  36.672  1.00 41.13 LIG 0.03  A 
ATOM     36  CE3 TRP D   1      16.260 -11.414  37.136  1.00 40.52 LIG 0.01  A 
ATOM     37  CZ3 TRP D   1      17.518 -11.525  37.780  1.00 41.02 LIG 0.00  A 
ATOM     38  CH2 TRP D   1      18.366 -12.626  37.532  1.00 39.74 LIG 0.00  A 
ENDBRANCH 28 29
ENDBRANCH 27 28
BRANCH 27 39
ATOM     39  N   TRP D   1      11.552 -12.998  36.233  1.00 33.45 LIG-0.07  N 
ATOM     40 H3   TRP D   1      10.717 -12.699  36.159  1.00 33.45 LIG 0.28  HD
ATOM     41 H2   TRP D   1      11.600 -13.580  36.905  1.00 33.45 LIG 0.28  HD
ATOM     42 H1   TRP D   1      11.790 -13.399  35.476  1.00 33.45 LIG 0.28  HD
ENDBRANCH 27 39
ENDBRANCH 1 27
TORSDOF 9
ENDMDL
MODEL 30
USER: ADFR SOLUTION from run 14
USER: SCORE 7.638810 LL:  -2.229 LR:  -5.409 RR:   0.000 FEB:  -2.725
USER: RMSD 4.157740
USER: SEED 376047
USER: STATUS no improvement in best 13 clusters for 5 generations
USER: GENES 11
USER: genes 0 Translation |==|  0.50360 0.47256 0.60855
USER: genes 1 Rotation |==|  0.50529 0.31156 0.56240 0.95888
USER: genes 2 Torsion [N]-CA--C-[O] |==|  0.95352
USER: genes 3 Torsion [C]-N--CA-[CB] |==|  0.73681
USER: genes 4 Torsion [N]-CA--C-[OXT] |==|  0.09595
USER: genes 5 Torsion [N]-CA--CB-[CG] |==|  0.79864
USER: genes 6 Torsion [CA]-CB--CG-[CD1] |==|  0.98685
USER: genes 7 Torsion [N]-C--CA-[N] |==|  0.45386
USER: genes 8 Torsion [C]-CA--CB-[CG] |==|  0.72851
USER: genes 9 Torsion [CA]-CB--CG-[CD1] |==|  0.72941
USER: genes 10 Torsion [C]-CA--N-[H2] |==|  0.71939
ROOT
ATOM      1  C   TRP D   1      13.008 -11.643  38.096  1.00 35.88 LIG 0.25  C 
ATOM      2 O    TRP D   1      11.926 -12.077  37.560  1.00 38.57 LIG-0.27  OA
ATOM      3  N   PRO D   2      13.343 -10.448  38.391  1.00 34.89 LIG-0.34  N 
ATOM      4  CA  PRO D   2      12.459  -9.240  38.296  1.00 35.03 LIG 0.18  C 
ATOM      5  CB  PRO D   2      13.389  -8.175  38.806  1.00 35.34 LIG 0.04  C 
ATOM      6  CG  PRO D   2      14.141  -8.936  39.900  1.00 35.42 LIG 0.02  C 
ATOM      7  CD  PRO D   2      14.175 -10.394  39.583  1.00 35.14 LIG 0.13  C 
ENDROOT
BRANCH 4 8
ATOM      8  C   PRO D   2      11.769  -8.852  36.994  1.00 35.70 LIG 0.24  C 
ATOM      9 O    PRO D   2      12.086  -9.278  35.893  1.00 34.88 LIG-0.27  OA
ATOM     10  N   TRP D   3      10.776  -7.983  37.280  1.00 36.87 LIG-0.34  N 
ATOM     11 H    TRP D   3      10.479  -7.875  38.079  1.00 36.87 LIG 0.16  HD
BRANCH 10 12
ATOM     12  CA  TRP D   3      10.074  -7.111  36.274  1.00 37.56 LIG 0.19  C 
BRANCH 12 13
ATOM     13  C   TRP D   3       9.742  -7.547  34.798  1.00 38.92 LIG 0.20  C 
ATOM     14 OXT  TRP D   3       9.433  -8.748  34.498  1.00 41.38 LIG-0.65  OA
ATOM     15 O    TRP D   3       9.834  -6.600  33.874  1.00 40.06 LIG-0.65  OA
ENDBRANCH 12 13
BRANCH 12 16
ATOM     16  CB  TRP D   3      10.756  -5.693  36.238  1.00 36.55 LIG 0.08  C 
BRANCH 16 17
ATOM     17  CG  TRP D   3      10.429  -4.874  37.499  1.00 35.48 LIG-0.03  A 
ATOM     18  CD1 TRP D   3       9.561  -5.240  38.533  1.00 37.13 LIG 0.10  A 
ATOM     19  NE1 TRP D   3       9.516  -4.239  39.485  1.00 40.71 LIG-0.36  N 
ATOM     20 HE1  TRP D   3       9.040  -4.256  40.200  1.00 40.71 LIG 0.17  HD
ATOM     21  CE2 TRP D   3      10.351  -3.206  39.114  1.00 36.12 LIG 0.04  A 
ATOM     22  CD2 TRP D   3      10.952  -3.572  37.848  1.00 33.28 LIG-0.00  A 
ATOM     23  CZ2 TRP D   3      10.607  -1.977  39.775  1.00 34.49 LIG 0.03  A 
ATOM     24  CE3 TRP D   3      11.838  -2.667  37.209  1.00 31.46 LIG 0.01  A 
ATOM     25  CZ3 TRP D   3      12.128  -1.447  37.850  1.00 32.66 LIG 0.00  A 
ATOM     26  CH2 TRP D   3      11.495  -1.102  39.142  1.00 36.62 LIG 0.00  A 
ENDBRANCH 16 17
ENDBRANCH 12 16
ENDBRANCH 10 12
ENDBRANCH 4 8
BRANCH 1 27
ATOM     27  CA  TRP D   1      14.234 -12.596  38.254  1.00 34.78 LIG 0.28  C 
BRANCH 27 28
ATOM     28  CB  TRP D   1      15.240 -12.423  37.108  1.00 34.63 LIG 0.08  C 
BRANCH 28 29
ATOM     29  CG  TRP D   1      15.051 -13.500  35.998  1.00 37.87 LIG-0.03  A 
ATOM     30  CD1 TRP D   1      15.764 -14.689  35.843  1.00 40.68 LIG 0.10  A 
ATOM     31  NE1 TRP D   1      15.266 -15.396  34.766  1.00 42.18 LIG-0.36  N 
ATOM     32 HE1  TRP D   1      15.559 -16.156  34.490  1.00 42.18 LIG 0.17  HD
ATOM     33  CE2 TRP D   1      14.218 -14.683  34.203  1.00 41.11 LIG 0.04  A 
ATOM     34  CD2 TRP D   1      14.061 -13.490  34.946  1.00 38.74 LIG-0.00  A 
ATOM     35  CZ2 TRP D   1      13.388 -15.003  33.085  1.00 41.13 LIG 0.03  A 
ATOM     36  CE3 TRP D   1      13.024 -12.603  34.585  1.00 40.52 LIG 0.01  A 
ATOM     37  CZ3 TRP D   1      12.205 -12.917  33.471  1.00 41.02 LIG 0.00  A 
ATOM     38  CH2 TRP D   1      12.393 -14.114  32.746  1.00 39.74 LIG 0.00  A 
ENDBRANCH 28 29
ENDBRANCH 27 28
BRANCH 27 39
ATOM     39  N   TRP D   1      13.810 -14.043  38.312  1.00 33.45 LIG-0.07  N 
ATOM     40 H3   TRP D   1      12.990 -14.126  37.977  1.00 33.45 LIG 0.28  HD
ATOM     41 H2   TRP D   1      13.815 -14.320  39.158  1.00 33.45 LIG 0.28  HD
ATOM     42 H1   TRP D   1      14.375 -14.537  37.835  1.00 33.45 LIG 0.28  HD
ENDBRANCH 27 39
ENDBRANCH 1 27
TORSDOF 9
ENDMDL
MODEL 31
USER: ADFR SOLUTION from run 28
USER: SCORE 7.397658 LL:  -2.007 LR:  -5.390 RR:   0.000 FEB:  -2.705
USER: RMSD 3.106389
USER: SEED 27
USER: STATUS no improvement in best 24 clusters for 5 generations
USER: GENES 11
USER: genes 0 Translation |==|  0.50245 0.46928 0.62434
USER: genes 1 Rotation |==|  0.46392 0.31722 0.56449 0.95949
USER: genes 2 Torsion [N]-CA--C-[O] |==|  0.24642
USER: genes 3 Torsion [C]-N--CA-[CB] |==|  0.66060
USER: genes 4 Torsion [N]-CA--C-[OXT] |==|  0.82602
USER: genes 5 Torsion [N]-CA--CB-[CG] |==|  0.80271
USER: genes 6 Torsion [CA]-CB--CG-[CD1] |==|  0.24468
USER: genes 7 Torsion [N]-C--CA-[N] |==|  0.45400
USER: genes 8 Torsion [C]-CA--CB-[CG] |==|  0.71426
USER: genes 9 Torsion [CA]-CB--CG-[CD1] |==|  0.23317
USER: genes 10 Torsion [C]-CA--N-[H2] |==|  0.77569
ROOT
ATOM      1  C   TRP D   1      12.974 -11.742  38.570  1.00 35.88 LIG 0.25  C 
ATOM      2 O    TRP D   1      11.866 -12.195  38.105  1.00 38.57 LIG-0.27  OA
ATOM      3  N   PRO D   2      13.374 -10.535  38.675  1.00 34.89 LIG-0.34  N 
ATOM      4  CA  PRO D   2      12.558  -9.311  38.387  1.00 35.03 LIG 0.18  C 
ATOM      5  CB  PRO D   2      13.546  -8.231  38.726  1.00 35.34 LIG 0.04  C 
ATOM      6  CG  PRO D   2      14.262  -8.850  39.929  1.00 35.42 LIG 0.02  C 
ATOM      7  CD  PRO D   2      14.214 -10.339  39.845  1.00 35.14 LIG 0.13  C 
ENDROOT
BRANCH 4 8
ATOM      8  C   PRO D   2      11.883  -9.095  37.038  1.00 35.70 LIG 0.24  C 
ATOM      9 O    PRO D   2      10.760  -9.489  36.760  1.00 34.88 LIG-0.27  OA
ATOM     10  N   TRP D   3      12.729  -8.407  36.242  1.00 36.87 LIG-0.34  N 
ATOM     11 H    TRP D   3      13.415  -7.993  36.553  1.00 36.87 LIG 0.16  HD
BRANCH 10 12
ATOM     12  CA  TRP D   3      12.596  -8.275  34.749  1.00 37.56 LIG 0.19  C 
BRANCH 12 13
ATOM     13  C   TRP D   3      11.345  -8.755  33.922  1.00 38.92 LIG 0.20  C 
ATOM     14 OXT  TRP D   3      10.995  -9.981  33.871  1.00 41.38 LIG-0.65  OA
ATOM     15 O    TRP D   3      10.693  -7.816  33.251  1.00 40.06 LIG-0.65  OA
ENDBRANCH 12 13
BRANCH 12 16
ATOM     16  CB  TRP D   3      13.898  -8.820  34.053  1.00 36.55 LIG 0.08  C 
BRANCH 16 17
ATOM     17  CG  TRP D   3      15.097  -7.883  34.279  1.00 35.48 LIG-0.03  A 
ATOM     18  CD1 TRP D   3      15.991  -7.912  35.355  1.00 37.13 LIG 0.10  A 
ATOM     19  NE1 TRP D   3      16.927  -6.905  35.215  1.00 40.71 LIG-0.36  N 
ATOM     20 HE1  TRP D   3      17.564  -6.741  35.768  1.00 40.71 LIG 0.17  HD
ATOM     21  CE2 TRP D   3      16.686  -6.203  34.054  1.00 36.12 LIG 0.04  A 
ATOM     22  CD2 TRP D   3      15.523  -6.795  33.426  1.00 33.28 LIG-0.00  A 
ATOM     23  CZ2 TRP D   3      17.380  -5.087  33.518  1.00 34.49 LIG 0.03  A 
ATOM     24  CE3 TRP D   3      15.024  -6.242  32.219  1.00 31.46 LIG 0.01  A 
ATOM     25  CZ3 TRP D   3      15.702  -5.146  31.653  1.00 32.66 LIG 0.00  A 
ATOM     26  CH2 TRP D   3      16.887  -4.562  32.319  1.00 36.62 LIG 0.00  A 
ENDBRANCH 16 17
ENDBRANCH 12 16
ENDBRANCH 10 12
ENDBRANCH 4 8
BRANCH 1 27
ATOM     27  CA  TRP D   1      14.146 -12.723  38.880  1.00 34.78 LIG 0.28  C 
BRANCH 27 28
ATOM     28  CB  TRP D   1      15.155 -12.787  37.725  1.00 34.63 LIG 0.08  C 
BRANCH 28 29
ATOM     29  CG  TRP D   1      14.984 -14.080  36.872  1.00 37.87 LIG-0.03  A 
ATOM     30  CD1 TRP D   1      14.089 -14.289  35.824  1.00 40.68 LIG 0.10  A 
ATOM     31  NE1 TRP D   1      14.279 -15.548  35.290  1.00 42.18 LIG-0.36  N 
ATOM     32 HE1  TRP D   1      13.833 -15.885  34.636  1.00 42.18 LIG 0.17  HD
ATOM     33  CE2 TRP D   1      15.304 -16.181  35.977  1.00 41.11 LIG 0.04  A 
ATOM     34  CD2 TRP D   1      15.764 -15.291  36.977  1.00 38.74 LIG-0.00  A 
ATOM     35  CZ2 TRP D   1      15.868 -17.480  35.792  1.00 41.13 LIG 0.03  A 
ATOM     36  CE3 TRP D   1      16.839 -15.697  37.796  1.00 40.52 LIG 0.01  A 
ATOM     37  CZ3 TRP D   1      17.394 -16.990  37.616  1.00 41.02 LIG 0.00  A 
ATOM     38  CH2 TRP D   1      16.906 -17.856  36.613  1.00 39.74 LIG 0.00  A 
ENDBRANCH 28 29
ENDBRANCH 27 28
BRANCH 27 39
ATOM     39  N   TRP D   1      13.645 -14.118  39.162  1.00 33.45 LIG-0.07  N 
ATOM     40 H3   TRP D   1      12.973 -14.309  38.611  1.00 33.45 LIG 0.28  HD
ATOM     41 H2   TRP D   1      13.361 -14.167  40.004  1.00 33.45 LIG 0.28  HD
ATOM     42 H1   TRP D   1      14.305 -14.702  39.038  1.00 33.45 LIG 0.28  HD
ENDBRANCH 27 39
ENDBRANCH 1 27
TORSDOF 9
ENDMDL
MODEL 32
USER: ADFR SOLUTION from run 132
USER: SCORE 8.057243 LL:  -2.673 LR:  -5.385 RR:   0.000 FEB:  -2.700
USER: RMSD 3.552979
USER: SEED 131
USER: STATUS no improvement in best 28 clusters for 5 generations
USER: GENES 11
USER: genes 0 Translation |==|  0.49398 0.47110 0.59712
USER: genes 1 Rotation |==|  0.51878 0.28230 0.52791 0.94886
USER: genes 2 Torsion [N]-CA--C-[O] |==|  0.28221
USER: genes 3 Torsion [C]-N--CA-[CB] |==|  0.36668
USER: genes 4 Torsion [N]-CA--C-[OXT] |==|  0.99259
USER: genes 5 Torsion [N]-CA--CB-[CG] |==|  0.26735
USER: genes 6 Torsion [CA]-CB--CG-[CD1] |==|  0.81903
USER: genes 7 Torsion [N]-C--CA-[N] |==|  0.48279
USER: genes 8 Torsion [C]-CA--CB-[CG] |==|  0.71416
USER: genes 9 Torsion [CA]-CB--CG-[CD1] |==|  0.68479
USER: genes 10 Torsion [C]-CA--N-[H2] |==|  0.77436
ROOT
ATOM      1  C   TRP D   1      12.719 -11.687  37.753  1.00 35.88 LIG 0.25  C 
ATOM      2 O    TRP D   1      11.673 -11.939  37.054  1.00 38.57 LIG-0.27  OA
ATOM      3  N   PRO D   2      13.129 -10.575  38.226  1.00 34.89 LIG-0.34  N 
ATOM      4  CA  PRO D   2      12.383  -9.275  38.184  1.00 35.03 LIG 0.18  C 
ATOM      5  CB  PRO D   2      13.341  -8.380  38.917  1.00 35.34 LIG 0.04  C 
ATOM      6  CG  PRO D   2      13.881  -9.334  39.985  1.00 35.42 LIG 0.02  C 
ATOM      7  CD  PRO D   2      13.813 -10.743  39.498  1.00 35.14 LIG 0.13  C 
ENDROOT
BRANCH 4 8
ATOM      8  C   PRO D   2      11.893  -8.673  36.872  1.00 35.70 LIG 0.24  C 
ATOM      9 O    PRO D   2      10.738  -8.731  36.477  1.00 34.88 LIG-0.27  OA
ATOM     10  N   TRP D   3      12.939  -8.082  36.257  1.00 36.87 LIG-0.34  N 
ATOM     11 H    TRP D   3      13.672  -7.904  36.670  1.00 36.87 LIG 0.16  HD
BRANCH 10 12
ATOM     12  CA  TRP D   3      12.969  -7.664  34.812  1.00 37.56 LIG 0.19  C 
BRANCH 12 13
ATOM     13  C   TRP D   3      13.601  -8.521  33.652  1.00 38.92 LIG 0.20  C 
ATOM     14 OXT  TRP D   3      14.189  -9.632  33.872  1.00 41.38 LIG-0.65  OA
ATOM     15 O    TRP D   3      13.519  -8.006  32.433  1.00 40.06 LIG-0.65  OA
ENDBRANCH 12 13
BRANCH 12 16
ATOM     16  CB  TRP D   3      13.509  -6.190  34.700  1.00 36.55 LIG 0.08  C 
BRANCH 16 17
ATOM     17  CG  TRP D   3      15.015  -6.158  34.390  1.00 35.48 LIG-0.03  A 
ATOM     18  CD1 TRP D   3      16.049  -6.612  35.215  1.00 37.13 LIG 0.10  A 
ATOM     19  NE1 TRP D   3      17.268  -6.403  34.598  1.00 40.71 LIG-0.36  N 
ATOM     20 HE1  TRP D   3      18.034  -6.603  34.933  1.00 40.71 LIG 0.17  HD
ATOM     21  CE2 TRP D   3      17.071  -5.825  33.361  1.00 36.12 LIG 0.04  A 
ATOM     22  CD2 TRP D   3      15.644  -5.651  33.190  1.00 33.28 LIG-0.00  A 
ATOM     23  CZ2 TRP D   3      18.030  -5.426  32.394  1.00 34.49 LIG 0.03  A 
ATOM     24  CE3 TRP D   3      15.153  -5.038  32.009  1.00 31.46 LIG 0.01  A 
ATOM     25  CZ3 TRP D   3      16.078  -4.648  31.021  1.00 32.66 LIG 0.00  A 
ATOM     26  CH2 TRP D   3      17.531  -4.839  31.227  1.00 36.62 LIG 0.00  A 
ENDBRANCH 16 17
ENDBRANCH 12 16
ENDBRANCH 10 12
ENDBRANCH 4 8
BRANCH 1 27
ATOM     27  CA  TRP D   1      13.821 -12.779  37.925  1.00 34.78 LIG 0.28  C 
BRANCH 27 28
ATOM     28  CB  TRP D   1      15.080 -12.451  37.110  1.00 34.63 LIG 0.08  C 
BRANCH 28 29
ATOM     29  CG  TRP D   1      15.170 -13.301  35.808  1.00 37.87 LIG-0.03  A 
ATOM     30  CD1 TRP D   1      16.114 -14.281  35.502  1.00 40.68 LIG 0.10  A 
ATOM     31  NE1 TRP D   1      15.827 -14.840  34.272  1.00 42.18 LIG-0.36  N 
ATOM     32 HE1  TRP D   1      16.280 -15.462  33.889  1.00 42.18 LIG 0.17  HD
ATOM     33  CE2 TRP D   1      14.689 -14.237  33.757  1.00 41.11 LIG 0.04  A 
ATOM     34  CD2 TRP D   1      14.256 -13.265  34.690  1.00 38.74 LIG-0.00  A 
ATOM     35  CZ2 TRP D   1      14.002 -14.476  32.528  1.00 41.13 LIG 0.03  A 
ATOM     36  CE3 TRP D   1      13.085 -12.533  34.404  1.00 40.52 LIG 0.01  A 
ATOM     37  CZ3 TRP D   1      12.406 -12.766  33.181  1.00 41.02 LIG 0.00  A 
ATOM     38  CH2 TRP D   1      12.869 -13.738  32.268  1.00 39.74 LIG 0.00  A 
ENDBRANCH 28 29
ENDBRANCH 27 28
BRANCH 27 39
ATOM     39  N   TRP D   1      13.321 -14.142  37.515  1.00 33.45 LIG-0.07  N 
ATOM     40 H3   TRP D   1      12.804 -14.065  36.795  1.00 33.45 LIG 0.28  HD
ATOM     41 H2   TRP D   1      12.851 -14.499  38.181  1.00 33.45 LIG 0.28  HD
ATOM     42 H1   TRP D   1      14.014 -14.668  37.327  1.00 33.45 LIG 0.28  HD
ENDBRANCH 27 39
ENDBRANCH 1 27
TORSDOF 9
ENDMDL
MODEL 33
USER: ADFR SOLUTION from run 17
USER: SCORE 8.264330 LL:  -2.930 LR:  -5.335 RR:   0.000 FEB:  -2.650
USER: RMSD 3.900346
USER: SEED 16
USER: STATUS no improvement in best 27 clusters for 5 generations
USER: GENES 11
USER: genes 0 Translation |==|  0.52965 0.47477 0.59071
USER: genes 1 Rotation |==|  0.55061 0.35025 0.59951 0.96380
USER: genes 2 Torsion [N]-CA--C-[O] |==|  0.18281
USER: genes 3 Torsion [C]-N--CA-[CB] |==|  0.56119
USER: genes 4 Torsion [N]-CA--C-[OXT] |==|  0.02313
USER: genes 5 Torsion [N]-CA--CB-[CG] |==|  0.15914
USER: genes 6 Torsion [CA]-CB--CG-[CD1] |==|  0.90606
USER: genes 7 Torsion [N]-C--CA-[N] |==|  0.25495
USER: genes 8 Torsion [C]-CA--CB-[CG] |==|  0.27957
USER: genes 9 Torsion [CA]-CB--CG-[CD1] |==|  0.35336
USER: genes 10 Torsion [C]-CA--N-[H2] |==|  0.68493
ROOT
ATOM      1  C   TRP D   1      13.789 -11.577  37.561  1.00 35.88 LIG 0.25  C 
ATOM      2 O    TRP D   1      12.734 -12.188  37.160  1.00 38.57 LIG-0.27  OA
ATOM      3  N   PRO D   2      13.933 -10.363  37.926  1.00 34.89 LIG-0.34  N 
ATOM      4  CA  PRO D   2      12.830  -9.363  38.102  1.00 35.03 LIG 0.18  C 
ATOM      5  CB  PRO D   2      13.610  -8.167  38.569  1.00 35.34 LIG 0.04  C 
ATOM      6  CG  PRO D   2      14.679  -8.831  39.441  1.00 35.42 LIG 0.02  C 
ATOM      7  CD  PRO D   2      14.937 -10.222  38.968  1.00 35.14 LIG 0.13  C 
ENDROOT
BRANCH 4 8
ATOM      8  C   PRO D   2      11.856  -9.034  36.977  1.00 35.70 LIG 0.24  C 
ATOM      9 O    PRO D   2      11.050  -9.826  36.511  1.00 34.88 LIG-0.27  OA
ATOM     10  N   TRP D   3      12.046  -7.749  36.610  1.00 36.87 LIG-0.34  N 
ATOM     11 H    TRP D   3      12.483  -7.193  37.099  1.00 36.87 LIG 0.16  HD
BRANCH 10 12
ATOM     12  CA  TRP D   3      11.536  -7.129  35.337  1.00 37.56 LIG 0.19  C 
BRANCH 12 13
ATOM     13  C   TRP D   3      11.264  -7.927  34.007  1.00 38.92 LIG 0.20  C 
ATOM     14 OXT  TRP D   3      11.312  -9.201  33.957  1.00 41.38 LIG-0.65  OA
ATOM     15 O    TRP D   3      11.015  -7.197  32.929  1.00 40.06 LIG-0.65  OA
ENDBRANCH 12 13
BRANCH 12 16
ATOM     16  CB  TRP D   3      12.392  -5.854  34.992  1.00 36.55 LIG 0.08  C 
BRANCH 16 17
ATOM     17  CG  TRP D   3      13.887  -6.190  34.866  1.00 35.48 LIG-0.03  A 
ATOM     18  CD1 TRP D   3      14.593  -7.153  35.594  1.00 37.13 LIG 0.10  A 
ATOM     19  NE1 TRP D   3      15.921  -7.153  35.209  1.00 40.71 LIG-0.36  N 
ATOM     20 HE1  TRP D   3      16.531  -7.663  35.535  1.00 40.71 LIG 0.17  HD
ATOM     21  CE2 TRP D   3      16.120  -6.211  34.222  1.00 36.12 LIG 0.04  A 
ATOM     22  CD2 TRP D   3      14.844  -5.572  33.974  1.00 33.28 LIG-0.00  A 
ATOM     23  CZ2 TRP D   3      17.316  -5.857  33.547  1.00 34.49 LIG 0.03  A 
ATOM     24  CE3 TRP D   3      14.762  -4.525  33.020  1.00 31.46 LIG 0.01  A 
ATOM     25  CZ3 TRP D   3      15.929  -4.164  32.319  1.00 32.66 LIG 0.00  A 
ATOM     26  CH2 TRP D   3      17.217  -4.836  32.596  1.00 36.62 LIG 0.00  A 
ENDBRANCH 16 17
ENDBRANCH 12 16
ENDBRANCH 10 12
ENDBRANCH 4 8
BRANCH 1 27
ATOM     27  CA  TRP D   1      15.185 -12.260  37.418  1.00 34.78 LIG 0.28  C 
BRANCH 27 28
ATOM     28  CB  TRP D   1      15.198 -13.296  36.285  1.00 34.63 LIG 0.08  C 
BRANCH 28 29
ATOM     29  CG  TRP D   1      15.858 -12.736  34.990  1.00 37.87 LIG-0.03  A 
ATOM     30  CD1 TRP D   1      16.895 -13.309  34.254  1.00 40.68 LIG 0.10  A 
ATOM     31  NE1 TRP D   1      17.166 -12.533  33.144  1.00 42.18 LIG-0.36  N 
ATOM     32 HE1  TRP D   1      17.769 -12.699  32.555  1.00 42.18 LIG 0.17  HD
ATOM     33  CE2 TRP D   1      16.308 -11.443  33.135  1.00 41.11 LIG 0.04  A 
ATOM     34  CD2 TRP D   1      15.481 -11.536  34.279  1.00 38.74 LIG-0.00  A 
ATOM     35  CZ2 TRP D   1      16.197 -10.371  32.197  1.00 41.13 LIG 0.03  A 
ATOM     36  CE3 TRP D   1      14.491 -10.551  34.477  1.00 40.52 LIG 0.01  A 
ATOM     37  CZ3 TRP D   1      14.385  -9.483  33.549  1.00 41.02 LIG 0.00  A 
ATOM     38  CH2 TRP D   1      15.232  -9.415  32.421  1.00 39.74 LIG 0.00  A 
ENDBRANCH 28 29
ENDBRANCH 27 28
BRANCH 27 39
ATOM     39  N   TRP D   1      15.607 -12.938  38.698  1.00 33.45 LIG-0.07  N 
ATOM     40 H3   TRP D   1      14.937 -12.909  39.284  1.00 33.45 LIG 0.28  HD
ATOM     41 H2   TRP D   1      16.316 -12.520  39.037  1.00 33.45 LIG 0.28  HD
ATOM     42 H1   TRP D   1      15.816 -13.786  38.530  1.00 33.45 LIG 0.28  HD
ENDBRANCH 27 39
ENDBRANCH 1 27
TORSDOF 9
ENDMDL
MODEL 34
USER: ADFR SOLUTION from run 74
USER: SCORE 7.483050 LL:  -2.161 LR:  -5.323 RR:   0.000 FEB:  -2.638
USER: RMSD 3.217038
USER: SEED 73
USER: STATUS no improvement in best 11 clusters for 5 generations
USER: GENES 11
USER: genes 0 Translation |==|  0.50362 0.45115 0.59813
USER: genes 1 Rotation |==|  0.55540 0.43376 0.44018 0.98884
USER: genes 2 Torsion [N]-CA--C-[O] |==|  0.41702
USER: genes 3 Torsion [C]-N--CA-[CB] |==|  0.41218
USER: genes 4 Torsion [N]-CA--C-[OXT] |==|  0.99950
USER: genes 5 Torsion [N]-CA--CB-[CG] |==|  0.71911
USER: genes 6 Torsion [CA]-CB--CG-[CD1] |==|  0.79107
USER: genes 7 Torsion [N]-C--CA-[N] |==|  0.29411
USER: genes 8 Torsion [C]-CA--CB-[CG] |==|  0.64277
USER: genes 9 Torsion [CA]-CB--CG-[CD1] |==|  0.77897
USER: genes 10 Torsion [C]-CA--N-[H2] |==|  0.52035
ROOT
ATOM      1  C   TRP D   1      13.009 -12.286  37.784  1.00 35.88 LIG 0.25  C 
ATOM      2 O    TRP D   1      11.733 -12.160  37.858  1.00 38.57 LIG-0.27  OA
ATOM      3  N   PRO D   2      13.923 -11.441  38.063  1.00 34.89 LIG-0.34  N 
ATOM      4  CA  PRO D   2      13.713 -10.096  38.692  1.00 35.03 LIG 0.18  C 
ATOM      5  CB  PRO D   2      15.132  -9.613  38.797  1.00 35.34 LIG 0.04  C 
ATOM      6  CG  PRO D   2      15.864 -10.914  39.137  1.00 35.42 LIG 0.02  C 
ATOM      7  CD  PRO D   2      15.116 -12.083  38.589  1.00 35.14 LIG 0.13  C 
ENDROOT
BRANCH 4 8
ATOM      8  C   PRO D   2      12.777  -9.060  38.080  1.00 35.70 LIG 0.24  C 
ATOM      9 O    PRO D   2      12.162  -8.223  38.724  1.00 34.88 LIG-0.27  OA
ATOM     10  N   TRP D   3      12.763  -9.236  36.742  1.00 36.87 LIG-0.34  N 
ATOM     11 H    TRP D   3      13.358  -9.704  36.335  1.00 36.87 LIG 0.16  HD
BRANCH 10 12
ATOM     12  CA  TRP D   3      11.738  -8.656  35.805  1.00 37.56 LIG 0.19  C 
BRANCH 12 13
ATOM     13  C   TRP D   3      10.310  -9.272  35.558  1.00 38.92 LIG 0.20  C 
ATOM     14 OXT  TRP D   3       9.918 -10.334  36.148  1.00 41.38 LIG-0.65  OA
ATOM     15 O    TRP D   3       9.548  -8.645  34.674  1.00 40.06 LIG-0.65  OA
ENDBRANCH 12 13
BRANCH 12 16
ATOM     16  CB  TRP D   3      12.406  -8.360  34.411  1.00 36.55 LIG 0.08  C 
BRANCH 16 17
ATOM     17  CG  TRP D   3      12.739  -6.868  34.246  1.00 35.48 LIG-0.03  A 
ATOM     18  CD1 TRP D   3      11.836  -5.832  33.984  1.00 37.13 LIG 0.10  A 
ATOM     19  NE1 TRP D   3      12.514  -4.631  33.891  1.00 40.71 LIG-0.36  N 
ATOM     20 HE1  TRP D   3      12.150  -3.869  33.728  1.00 40.71 LIG 0.17  HD
ATOM     21  CE2 TRP D   3      13.861  -4.838  34.097  1.00 36.12 LIG 0.04  A 
ATOM     22  CD2 TRP D   3      14.048  -6.256  34.327  1.00 33.28 LIG-0.00  A 
ATOM     23  CZ2 TRP D   3      14.926  -3.902  34.079  1.00 34.49 LIG 0.03  A 
ATOM     24  CE3 TRP D   3      15.356  -6.762  34.534  1.00 31.46 LIG 0.01  A 
ATOM     25  CZ3 TRP D   3      16.433  -5.855  34.542  1.00 32.66 LIG 0.00  A 
ATOM     26  CH2 TRP D   3      16.209  -4.412  34.303  1.00 36.62 LIG 0.00  A 
ENDBRANCH 16 17
ENDBRANCH 12 16
ENDBRANCH 10 12
ENDBRANCH 4 8
BRANCH 1 27
ATOM     27  CA  TRP D   1      13.627 -13.524  37.065  1.00 34.78 LIG 0.28  C 
BRANCH 27 28
ATOM     28  CB  TRP D   1      12.838 -13.904  35.805  1.00 34.63 LIG 0.08  C 
BRANCH 28 29
ATOM     29  CG  TRP D   1      12.454 -15.414  35.789  1.00 37.87 LIG-0.03  A 
ATOM     30  CD1 TRP D   1      13.269 -16.491  35.444  1.00 40.68 LIG 0.10  A 
ATOM     31  NE1 TRP D   1      12.576 -17.674  35.604  1.00 42.18 LIG-0.36  N 
ATOM     32 HE1  TRP D   1      12.888 -18.460  35.447  1.00 42.18 LIG 0.17  HD
ATOM     33  CE2 TRP D   1      11.298 -17.391  36.061  1.00 41.11 LIG 0.04  A 
ATOM     34  CD2 TRP D   1      11.186 -15.985  36.183  1.00 38.74 LIG-0.00  A 
ATOM     35  CZ2 TRP D   1      10.221 -18.273  36.381  1.00 41.13 LIG 0.03  A 
ATOM     36  CE3 TRP D   1       9.976 -15.445  36.668  1.00 40.52 LIG 0.01  A 
ATOM     37  CZ3 TRP D   1       8.906 -16.321  36.978  1.00 41.02 LIG 0.00  A 
ATOM     38  CH2 TRP D   1       9.048 -17.719  36.839  1.00 39.74 LIG 0.00  A 
ENDBRANCH 28 29
ENDBRANCH 27 28
BRANCH 27 39
ATOM     39  N   TRP D   1      13.689 -14.724  37.977  1.00 33.45 LIG-0.07  N 
ATOM     40 H3   TRP D   1      14.100 -14.501  38.734  1.00 33.45 LIG 0.28  HD
ATOM     41 H2   TRP D   1      14.140 -15.379  37.577  1.00 33.45 LIG 0.28  HD
ATOM     42 H1   TRP D   1      12.863 -15.002  38.159  1.00 33.45 LIG 0.28  HD
ENDBRANCH 27 39
ENDBRANCH 1 27
TORSDOF 9
ENDMDL
MODEL 35
USER: ADFR SOLUTION from run 131
USER: SCORE 7.806006 LL:  -2.491 LR:  -5.315 RR:   0.000 FEB:  -2.630
USER: RMSD 3.407995
USER: SEED 130
USER: STATUS no improvement in best 18 clusters for 5 generations
USER: GENES 11
USER: genes 0 Translation |==|  0.46659 0.49409 0.57297
USER: genes 1 Rotation |==|  0.38228 0.30630 0.49433 0.94564
USER: genes 2 Torsion [N]-CA--C-[O] |==|  0.91642
USER: genes 3 Torsion [C]-N--CA-[CB] |==|  0.85891
USER: genes 4 Torsion [N]-CA--C-[OXT] |==|  0.13747
USER: genes 5 Torsion [N]-CA--CB-[CG] |==|  0.84009
USER: genes 6 Torsion [CA]-CB--CG-[CD1] |==|  0.90704
USER: genes 7 Torsion [N]-C--CA-[N] |==|  0.41951
USER: genes 8 Torsion [C]-CA--CB-[CG] |==|  0.45747
USER: genes 9 Torsion [CA]-CB--CG-[CD1] |==|  0.32929
USER: genes 10 Torsion [C]-CA--N-[H2] |==|  0.71040
ROOT
ATOM      1  C   TRP D   1      11.898 -10.997  37.029  1.00 35.88 LIG 0.25  C 
ATOM      2 O    TRP D   1      10.744 -11.128  36.480  1.00 38.57 LIG-0.27  OA
ATOM      3  N   PRO D   2      12.706 -10.012  36.989  1.00 34.89 LIG-0.34  N 
ATOM      4  CA  PRO D   2      12.428  -8.672  36.376  1.00 35.03 LIG 0.18  C 
ATOM      5  CB  PRO D   2      13.714  -7.956  36.678  1.00 35.34 LIG 0.04  C 
ATOM      6  CG  PRO D   2      14.046  -8.512  38.065  1.00 35.42 LIG 0.02  C 
ATOM      7  CD  PRO D   2      13.458  -9.874  38.227  1.00 35.14 LIG 0.13  C 
ENDROOT
BRANCH 4 8
ATOM      8  C   PRO D   2      11.997  -8.529  34.921  1.00 35.70 LIG 0.24  C 
ATOM      9 O    PRO D   2      12.324  -9.297  34.028  1.00 34.88 LIG-0.27  OA
ATOM     10  N   TRP D   3      11.210  -7.438  34.814  1.00 36.87 LIG-0.34  N 
ATOM     11 H    TRP D   3      10.860  -7.057  35.501  1.00 36.87 LIG 0.16  HD
BRANCH 10 12
ATOM     12  CA  TRP D   3      10.848  -6.756  33.522  1.00 37.56 LIG 0.19  C 
BRANCH 12 13
ATOM     13  C   TRP D   3       9.727  -7.257  32.537  1.00 38.92 LIG 0.20  C 
ATOM     14 OXT  TRP D   3       8.552  -7.552  32.939  1.00 41.38 LIG-0.65  OA
ATOM     15 O    TRP D   3      10.081  -7.388  31.266  1.00 40.06 LIG-0.65  OA
ENDBRANCH 12 13
BRANCH 12 16
ATOM     16  CB  TRP D   3      12.155  -6.471  32.693  1.00 36.55 LIG 0.08  C 
BRANCH 16 17
ATOM     17  CG  TRP D   3      13.154  -5.611  33.486  1.00 35.48 LIG-0.03  A 
ATOM     18  CD1 TRP D   3      12.846  -4.606  34.409  1.00 37.13 LIG 0.10  A 
ATOM     19  NE1 TRP D   3      14.011  -4.051  34.904  1.00 40.71 LIG-0.36  N 
ATOM     20 HE1  TRP D   3      14.050  -3.413  35.479  1.00 40.71 LIG 0.17  HD
ATOM     21  CE2 TRP D   3      15.102  -4.674  34.337  1.00 36.12 LIG 0.04  A 
ATOM     22  CD2 TRP D   3      14.598  -5.677  33.423  1.00 33.28 LIG-0.00  A 
ATOM     23  CZ2 TRP D   3      16.484  -4.422  34.537  1.00 34.49 LIG 0.03  A 
ATOM     24  CE3 TRP D   3      15.513  -6.454  32.667  1.00 31.46 LIG 0.01  A 
ATOM     25  CZ3 TRP D   3      16.892  -6.242  32.858  1.00 32.66 LIG 0.00  A 
ATOM     26  CH2 TRP D   3      17.375  -5.208  33.798  1.00 36.62 LIG 0.00  A 
ENDBRANCH 16 17
ENDBRANCH 12 16
ENDBRANCH 10 12
ENDBRANCH 4 8
BRANCH 1 27
ATOM     27  CA  TRP D   1      12.593 -12.234  37.678  1.00 34.78 LIG 0.28  C 
BRANCH 27 28
ATOM     28  CB  TRP D   1      13.360 -13.066  36.642  1.00 34.63 LIG 0.08  C 
BRANCH 28 29
ATOM     29  CG  TRP D   1      14.356 -14.060  37.311  1.00 37.87 LIG-0.03  A 
ATOM     30  CD1 TRP D   1      14.347 -15.452  37.225  1.00 40.68 LIG 0.10  A 
ATOM     31  NE1 TRP D   1      15.422 -15.971  37.919  1.00 42.18 LIG-0.36  N 
ATOM     32 HE1  TRP D   1      15.608 -16.806  37.999  1.00 42.18 LIG 0.17  HD
ATOM     33  CE2 TRP D   1      16.152 -14.927  38.467  1.00 41.11 LIG 0.04  A 
ATOM     34  CD2 TRP D   1      15.509 -13.718  38.110  1.00 38.74 LIG-0.00  A 
ATOM     35  CZ2 TRP D   1      17.343 -14.955  39.256  1.00 41.13 LIG 0.03  A 
ATOM     36  CE3 TRP D   1      16.088 -12.500  38.525  1.00 40.52 LIG 0.01  A 
ATOM     37  CZ3 TRP D   1      17.266 -12.529  39.315  1.00 41.02 LIG 0.00  A 
ATOM     38  CH2 TRP D   1      17.879 -13.753  39.659  1.00 39.74 LIG 0.00  A 
ENDBRANCH 28 29
ENDBRANCH 27 28
BRANCH 27 39
ATOM     39  N   TRP D   1      11.599 -13.129  38.377  1.00 33.45 LIG-0.07  N 
ATOM     40 H3   TRP D   1      10.776 -12.924  38.108  1.00 33.45 LIG 0.28  HD
ATOM     41 H2   TRP D   1      11.661 -13.012  39.257  1.00 33.45 LIG 0.28  HD
ATOM     42 H1   TRP D   1      11.773 -13.978  38.178  1.00 33.45 LIG 0.28  HD
ENDBRANCH 27 39
ENDBRANCH 1 27
TORSDOF 9
ENDMDL
MODEL 36
USER: ADFR SOLUTION from run 131
USER: SCORE 8.299111 LL:  -2.984 LR:  -5.315 RR:   0.000 FEB:  -2.631
USER: RMSD 3.140746
USER: SEED 130
USER: STATUS no improvement in best 18 clusters for 5 generations
USER: GENES 11
USER: genes 0 Translation |==|  0.50121 0.44836 0.62132
USER: genes 1 Rotation |==|  0.38881 0.41852 0.52442 0.98000
USER: genes 2 Torsion [N]-CA--C-[O] |==|  0.85626
USER: genes 3 Torsion [C]-N--CA-[CB] |==|  0.88178
USER: genes 4 Torsion [N]-CA--C-[OXT] |==|  0.02958
USER: genes 5 Torsion [N]-CA--CB-[CG] |==|  0.78991
USER: genes 6 Torsion [CA]-CB--CG-[CD1] |==|  0.93534
USER: genes 7 Torsion [N]-C--CA-[N] |==|  0.42009
USER: genes 8 Torsion [C]-CA--CB-[CG] |==|  0.16249
USER: genes 9 Torsion [CA]-CB--CG-[CD1] |==|  0.68627
USER: genes 10 Torsion [C]-CA--N-[H2] |==|  0.71039
ROOT
ATOM      1  C   TRP D   1      12.936 -12.369  38.480  1.00 35.88 LIG 0.25  C 
ATOM      2 O    TRP D   1      11.661 -12.513  38.531  1.00 38.57 LIG-0.27  OA
ATOM      3  N   PRO D   2      13.623 -11.370  38.084  1.00 34.89 LIG-0.34  N 
ATOM      4  CA  PRO D   2      13.078 -10.029  37.694  1.00 35.03 LIG 0.18  C 
ATOM      5  CB  PRO D   2      14.349  -9.295  37.372  1.00 35.34 LIG 0.04  C 
ATOM      6  CG  PRO D   2      15.296  -9.860  38.434  1.00 35.42 LIG 0.02  C 
ATOM      7  CD  PRO D   2      14.864 -11.233  38.829  1.00 35.14 LIG 0.13  C 
ENDROOT
BRANCH 4 8
ATOM      8  C   PRO D   2      12.016  -9.878  36.612  1.00 35.70 LIG 0.24  C 
ATOM      9 O    PRO D   2      12.102 -10.358  35.491  1.00 34.88 LIG-0.27  OA
ATOM     10  N   TRP D   3      10.999  -9.144  37.111  1.00 36.87 LIG-0.34  N 
ATOM     11 H    TRP D   3      10.907  -9.004  37.954  1.00 36.87 LIG 0.16  HD
BRANCH 10 12
ATOM     12  CA  TRP D   3       9.920  -8.491  36.290  1.00 37.56 LIG 0.19  C 
BRANCH 12 13
ATOM     13  C   TRP D   3       8.574  -9.191  35.872  1.00 38.92 LIG 0.20  C 
ATOM     14 OXT  TRP D   3       8.208 -10.309  36.367  1.00 41.38 LIG-0.65  OA
ATOM     15 O    TRP D   3       7.854  -8.570  34.948  1.00 40.06 LIG-0.65  OA
ENDBRANCH 12 13
BRANCH 12 16
ATOM     16  CB  TRP D   3      10.558  -7.825  35.015  1.00 36.55 LIG 0.08  C 
BRANCH 16 17
ATOM     17  CG  TRP D   3      11.288  -6.517  35.361  1.00 35.48 LIG-0.03  A 
ATOM     18  CD1 TRP D   3      11.056  -5.698  36.472  1.00 37.13 LIG 0.10  A 
ATOM     19  NE1 TRP D   3      11.900  -4.604  36.432  1.00 40.71 LIG-0.36  N 
ATOM     20 HE1  TRP D   3      11.919  -3.972  37.015  1.00 40.71 LIG 0.17  HD
ATOM     21  CE2 TRP D   3      12.707  -4.677  35.317  1.00 36.12 LIG 0.04  A 
ATOM     22  CD2 TRP D   3      12.347  -5.886  34.604  1.00 33.28 LIG-0.00  A 
ATOM     23  CZ2 TRP D   3      13.704  -3.773  34.869  1.00 34.49 LIG 0.03  A 
ATOM     24  CE3 TRP D   3      13.001  -6.197  33.385  1.00 31.46 LIG 0.01  A 
ATOM     25  CZ3 TRP D   3      14.010  -5.330  32.924  1.00 32.66 LIG 0.00  A 
ATOM     26  CH2 TRP D   3      14.354  -4.103  33.674  1.00 36.62 LIG 0.00  A 
ENDBRANCH 16 17
ENDBRANCH 12 16
ENDBRANCH 10 12
ENDBRANCH 4 8
BRANCH 1 27
ATOM     27  CA  TRP D   1      13.866 -13.601  38.708  1.00 34.78 LIG 0.28  C 
BRANCH 27 28
ATOM     28  CB  TRP D   1      14.072 -14.406  37.418  1.00 34.63 LIG 0.08  C 
BRANCH 28 29
ATOM     29  CG  TRP D   1      14.688 -13.538  36.280  1.00 37.87 LIG-0.03  A 
ATOM     30  CD1 TRP D   1      14.079 -13.151  35.087  1.00 40.68 LIG 0.10  A 
ATOM     31  NE1 TRP D   1      14.936 -12.346  34.364  1.00 42.18 LIG-0.36  N 
ATOM     32 HE1  TRP D   1      14.764 -11.997  33.597  1.00 42.18 LIG 0.17  HD
ATOM     33  CE2 TRP D   1      16.117 -12.191  35.073  1.00 41.11 LIG 0.04  A 
ATOM     34  CD2 TRP D   1      15.998 -12.928  36.274  1.00 38.74 LIG-0.00  A 
ATOM     35  CZ2 TRP D   1      17.293 -11.449  34.745  1.00 41.13 LIG 0.03  A 
ATOM     36  CE3 TRP D   1      17.070 -12.900  37.191  1.00 40.52 LIG 0.01  A 
ATOM     37  CZ3 TRP D   1      18.240 -12.169  36.862  1.00 41.02 LIG 0.00  A 
ATOM     38  CH2 TRP D   1      18.329 -11.449  35.651  1.00 39.74 LIG 0.00  A 
ENDBRANCH 28 29
ENDBRANCH 27 28
BRANCH 27 39
ATOM     39  N   TRP D   1      13.319 -14.522  39.771  1.00 33.45 LIG-0.07  N 
ATOM     40 H3   TRP D   1      12.463 -14.329  39.919  1.00 33.45 LIG 0.28  HD
ATOM     41 H2   TRP D   1      13.782 -14.415  40.524  1.00 33.45 LIG 0.28  HD
ATOM     42 H1   TRP D   1      13.389 -15.366  39.498  1.00 33.45 LIG 0.28  HD
ENDBRANCH 27 39
ENDBRANCH 1 27
TORSDOF 9
ENDMDL
MODEL 37
USER: ADFR SOLUTION from run 84
USER: SCORE 6.916136 LL:  -1.607 LR:  -5.309 RR:   0.000 FEB:  -2.624
USER: RMSD 2.783749
USER: SEED 83
USER: STATUS no improvement in best 11 clusters for 5 generations
USER: GENES 11
USER: genes 0 Translation |==|  0.49814 0.46949 0.58350
USER: genes 1 Rotation |==|  0.51504 0.38544 0.56786 0.98171
USER: genes 2 Torsion [N]-CA--C-[O] |==|  0.16688
USER: genes 3 Torsion [C]-N--CA-[CB] |==|  0.73115
USER: genes 4 Torsion [N]-CA--C-[OXT] |==|  0.59293
USER: genes 5 Torsion [N]-CA--CB-[CG] |==|  0.75422
USER: genes 6 Torsion [CA]-CB--CG-[CD1] |==|  0.79191
USER: genes 7 Torsion [N]-C--CA-[N] |==|  0.23940
USER: genes 8 Torsion [C]-CA--CB-[CG] |==|  0.70886
USER: genes 9 Torsion [CA]-CB--CG-[CD1] |==|  0.25030
USER: genes 10 Torsion [C]-CA--N-[H2] |==|  0.81769
ROOT
ATOM      1  C   TRP D   1      12.844 -11.735  37.345  1.00 35.88 LIG 0.25  C 
ATOM      2 O    TRP D   1      11.662 -12.204  37.169  1.00 38.57 LIG-0.27  OA
ATOM      3  N   PRO D   2      13.220 -10.529  37.516  1.00 34.89 LIG-0.34  N 
ATOM      4  CA  PRO D   2      12.316  -9.344  37.688  1.00 35.03 LIG 0.18  C 
ATOM      5  CB  PRO D   2      13.327  -8.249  37.883  1.00 35.34 LIG 0.04  C 
ATOM      6  CG  PRO D   2      14.400  -8.976  38.698  1.00 35.42 LIG 0.02  C 
ATOM      7  CD  PRO D   2      14.375 -10.436  38.394  1.00 35.14 LIG 0.13  C 
ENDROOT
BRANCH 4 8
ATOM      8  C   PRO D   2      11.250  -8.991  36.659  1.00 35.70 LIG 0.24  C 
ATOM      9 O    PRO D   2      10.330  -9.730  36.341  1.00 34.88 LIG-0.27  OA
ATOM     10  N   TRP D   3      11.504  -7.752  36.187  1.00 36.87 LIG-0.34  N 
ATOM     11 H    TRP D   3      12.042  -7.212  36.586  1.00 36.87 LIG 0.16  HD
BRANCH 10 12
ATOM     12  CA  TRP D   3      10.904  -7.162  34.940  1.00 37.56 LIG 0.19  C 
BRANCH 12 13
ATOM     13  C   TRP D   3       9.446  -7.461  34.427  1.00 38.92 LIG 0.20  C 
ATOM     14 OXT  TRP D   3       9.159  -7.504  33.185  1.00 41.38 LIG-0.65  OA
ATOM     15 O    TRP D   3       8.522  -7.632  35.362  1.00 40.06 LIG-0.65  OA
ENDBRANCH 12 13
BRANCH 12 16
ATOM     16  CB  TRP D   3      11.906  -7.339  33.739  1.00 36.55 LIG 0.08  C 
BRANCH 16 17
ATOM     17  CG  TRP D   3      12.887  -6.159  33.638  1.00 35.48 LIG-0.03  A 
ATOM     18  CD1 TRP D   3      12.605  -4.873  33.164  1.00 37.13 LIG 0.10  A 
ATOM     19  NE1 TRP D   3      13.745  -4.093  33.216  1.00 40.71 LIG-0.36  N 
ATOM     20 HE1  TRP D   3      13.795  -3.272  32.965  1.00 40.71 LIG 0.17  HD
ATOM     21  CE2 TRP D   3      14.791  -4.830  33.729  1.00 36.12 LIG 0.04  A 
ATOM     22  CD2 TRP D   3      14.285  -6.158  34.011  1.00 33.28 LIG-0.00  A 
ATOM     23  CZ2 TRP D   3      16.139  -4.445  33.947  1.00 34.49 LIG 0.03  A 
ATOM     24  CE3 TRP D   3      15.166  -7.146  34.520  1.00 31.46 LIG 0.01  A 
ATOM     25  CZ3 TRP D   3      16.505  -6.789  34.766  1.00 32.66 LIG 0.00  A 
ATOM     26  CH2 TRP D   3      16.992  -5.425  34.465  1.00 36.62 LIG 0.00  A 
ENDBRANCH 16 17
ENDBRANCH 12 16
ENDBRANCH 10 12
ENDBRANCH 4 8
BRANCH 1 27
ATOM     27  CA  TRP D   1      14.085 -12.655  37.125  1.00 34.78 LIG 0.28  C 
BRANCH 27 28
ATOM     28  CB  TRP D   1      13.741 -13.880  36.266  1.00 34.63 LIG 0.08  C 
BRANCH 28 29
ATOM     29  CG  TRP D   1      13.633 -15.179  37.119  1.00 37.87 LIG-0.03  A 
ATOM     30  CD1 TRP D   1      12.494 -15.693  37.737  1.00 40.68 LIG 0.10  A 
ATOM     31  NE1 TRP D   1      12.796 -16.888  38.358  1.00 42.18 LIG-0.36  N 
ATOM     32 HE1  TRP D   1      12.242 -17.374  38.801  1.00 42.18 LIG 0.17  HD
ATOM     33  CE2 TRP D   1      14.137 -17.177  38.153  1.00 41.11 LIG 0.04  A 
ATOM     34  CD2 TRP D   1      14.691 -16.126  37.386  1.00 38.74 LIG-0.00  A 
ATOM     35  CZ2 TRP D   1      14.911 -18.296  38.588  1.00 41.13 LIG 0.03  A 
ATOM     36  CE3 TRP D   1      16.050 -16.208  37.013  1.00 40.52 LIG 0.01  A 
ATOM     37  CZ3 TRP D   1      16.820 -17.315  37.451  1.00 41.02 LIG 0.00  A 
ATOM     38  CH2 TRP D   1      16.237 -18.345  38.222  1.00 39.74 LIG 0.00  A 
ENDBRANCH 28 29
ENDBRANCH 27 28
BRANCH 27 39
ATOM     39  N   TRP D   1      14.665 -13.130  38.434  1.00 33.45 LIG-0.07  N 
ATOM     40 H3   TRP D   1      14.028 -13.521  38.917  1.00 33.45 LIG 0.28  HD
ATOM     41 H2   TRP D   1      14.993 -12.435  38.884  1.00 33.45 LIG 0.28  HD
ATOM     42 H1   TRP D   1      15.317 -13.715  38.276  1.00 33.45 LIG 0.28  HD
ENDBRANCH 27 39
ENDBRANCH 1 27
TORSDOF 9
ENDMDL
MODEL 38
USER: ADFR SOLUTION from run 35
USER: SCORE 7.653665 LL:  -2.361 LR:  -5.292 RR:   0.000 FEB:  -2.608
USER: RMSD 3.631350
USER: SEED 34
USER: STATUS no improvement in best 17 clusters for 5 generations
USER: GENES 11
USER: genes 0 Translation |==|  0.53333 0.45238 0.63597
USER: genes 1 Rotation |==|  0.51015 0.58142 0.38840 0.98043
USER: genes 2 Torsion [N]-CA--C-[O] |==|  0.24633
USER: genes 3 Torsion [C]-N--CA-[CB] |==|  0.59373
USER: genes 4 Torsion [N]-CA--C-[OXT] |==|  0.75299
USER: genes 5 Torsion [N]-CA--CB-[CG] |==|  0.83453
USER: genes 6 Torsion [CA]-CB--CG-[CD1] |==|  0.17162
USER: genes 7 Torsion [N]-C--CA-[N] |==|  0.34291
USER: genes 8 Torsion [C]-CA--CB-[CG] |==|  0.35807
USER: genes 9 Torsion [CA]-CB--CG-[CD1] |==|  0.37944
USER: genes 10 Torsion [C]-CA--N-[H2] |==|  0.78880
ROOT
ATOM      1  C   TRP D   1      13.900 -12.248  38.919  1.00 35.88 LIG 0.25  C 
ATOM      2 O    TRP D   1      12.946 -11.895  39.702  1.00 38.57 LIG-0.27  OA
ATOM      3  N   PRO D   2      14.904 -11.576  38.512  1.00 34.89 LIG-0.34  N 
ATOM      4  CA  PRO D   2      15.288 -10.203  38.977  1.00 35.03 LIG 0.18  C 
ATOM      5  CB  PRO D   2      16.544  -9.981  38.181  1.00 35.34 LIG 0.04  C 
ATOM      6  CG  PRO D   2      17.154 -11.385  38.191  1.00 35.42 LIG 0.02  C 
ATOM      7  CD  PRO D   2      16.080 -12.411  38.325  1.00 35.14 LIG 0.13  C 
ENDROOT
BRANCH 4 8
ATOM      8  C   PRO D   2      14.320  -9.029  38.898  1.00 35.70 LIG 0.24  C 
ATOM      9 O    PRO D   2      13.527  -8.731  39.779  1.00 34.88 LIG-0.27  OA
ATOM     10  N   TRP D   3      14.503  -8.403  37.716  1.00 36.87 LIG-0.34  N 
ATOM     11 H    TRP D   3      15.200  -8.536  37.231  1.00 36.87 LIG 0.16  HD
BRANCH 10 12
ATOM     12  CA  TRP D   3      13.546  -7.417  37.103  1.00 37.56 LIG 0.19  C 
BRANCH 12 13
ATOM     13  C   TRP D   3      12.051  -7.227  37.560  1.00 38.92 LIG 0.20  C 
ATOM     14 OXT  TRP D   3      11.096  -7.908  37.058  1.00 41.38 LIG-0.65  OA
ATOM     15 O    TRP D   3      11.835  -6.293  38.475  1.00 40.06 LIG-0.65  OA
ENDBRANCH 12 13
BRANCH 12 16
ATOM     16  CB  TRP D   3      13.578  -7.556  35.535  1.00 36.55 LIG 0.08  C 
BRANCH 16 17
ATOM     17  CG  TRP D   3      14.985  -7.293  34.971  1.00 35.48 LIG-0.03  A 
ATOM     18  CD1 TRP D   3      16.147  -8.023  35.244  1.00 37.13 LIG 0.10  A 
ATOM     19  NE1 TRP D   3      17.216  -7.475  34.561  1.00 40.71 LIG-0.36  N 
ATOM     20 HE1  TRP D   3      18.025  -7.766  34.593  1.00 40.71 LIG 0.17  HD
ATOM     21  CE2 TRP D   3      16.792  -6.392  33.821  1.00 36.12 LIG 0.04  A 
ATOM     22  CD2 TRP D   3      15.371  -6.241  34.056  1.00 33.28 LIG-0.00  A 
ATOM     23  CZ2 TRP D   3      17.543  -5.526  32.986  1.00 34.49 LIG 0.03  A 
ATOM     24  CE3 TRP D   3      14.673  -5.171  33.441  1.00 31.46 LIG 0.01  A 
ATOM     25  CZ3 TRP D   3      15.386  -4.305  32.590  1.00 32.66 LIG 0.00  A 
ATOM     26  CH2 TRP D   3      16.838  -4.486  32.372  1.00 36.62 LIG 0.00  A 
ENDBRANCH 16 17
ENDBRANCH 12 16
ENDBRANCH 10 12
ENDBRANCH 4 8
BRANCH 1 27
ATOM     27  CA  TRP D   1      13.802 -13.592  38.132  1.00 34.78 LIG 0.28  C 
BRANCH 27 28
ATOM     28  CB  TRP D   1      12.538 -13.654  37.265  1.00 34.63 LIG 0.08  C 
BRANCH 28 29
ATOM     29  CG  TRP D   1      12.859 -14.044  35.791  1.00 37.87 LIG-0.03  A 
ATOM     30  CD1 TRP D   1      12.166 -14.945  34.984  1.00 40.68 LIG 0.10  A 
ATOM     31  NE1 TRP D   1      12.733 -14.980  33.726  1.00 42.18 LIG-0.36  N 
ATOM     32 HE1  TRP D   1      12.465 -15.469  33.071  1.00 42.18 LIG 0.17  HD
ATOM     33  CE2 TRP D   1      13.804 -14.100  33.689  1.00 41.11 LIG 0.04  A 
ATOM     34  CD2 TRP D   1      13.914 -13.502  34.966  1.00 38.74 LIG-0.00  A 
ATOM     35  CZ2 TRP D   1      14.693 -13.781  32.617  1.00 41.13 LIG 0.03  A 
ATOM     36  CE3 TRP D   1      14.919 -12.533  35.172  1.00 40.52 LIG 0.01  A 
ATOM     37  CZ3 TRP D   1      15.805 -12.222  34.110  1.00 41.02 LIG 0.00  A 
ATOM     38  CH2 TRP D   1      15.672 -12.843  32.848  1.00 39.74 LIG 0.00  A 
ENDBRANCH 28 29
ENDBRANCH 27 28
BRANCH 27 39
ATOM     39  N   TRP D   1      13.810 -14.782  39.060  1.00 33.45 LIG-0.07  N 
ATOM     40 H3   TRP D   1      13.273 -14.624  39.751  1.00 33.45 LIG 0.28  HD
ATOM     41 H2   TRP D   1      14.638 -14.924  39.355  1.00 33.45 LIG 0.28  HD
ATOM     42 H1   TRP D   1      13.525 -15.502  38.622  1.00 33.45 LIG 0.28  HD
ENDBRANCH 27 39
ENDBRANCH 1 27
TORSDOF 9
ENDMDL
MODEL 39
USER: ADFR SOLUTION from run 74
USER: SCORE 8.176543 LL:  -2.891 LR:  -5.286 RR:   0.000 FEB:  -2.601
USER: RMSD 3.282524
USER: SEED 73
USER: STATUS no improvement in best 11 clusters for 5 generations
USER: GENES 11
USER: genes 0 Translation |==|  0.50362 0.45115 0.59813
USER: genes 1 Rotation |==|  0.55540 0.43376 0.44018 0.98884
USER: genes 2 Torsion [N]-CA--C-[O] |==|  0.41702
USER: genes 3 Torsion [C]-N--CA-[CB] |==|  0.41218
USER: genes 4 Torsion [N]-CA--C-[OXT] |==|  0.99950
USER: genes 5 Torsion [N]-CA--CB-[CG] |==|  0.71911
USER: genes 6 Torsion [CA]-CB--CG-[CD1] |==|  0.79107
USER: genes 7 Torsion [N]-C--CA-[N] |==|  0.48193
USER: genes 8 Torsion [C]-CA--CB-[CG] |==|  0.70586
USER: genes 9 Torsion [CA]-CB--CG-[CD1] |==|  0.77950
USER: genes 10 Torsion [C]-CA--N-[H2] |==|  0.52035
ROOT
ATOM      1  C   TRP D   1      13.009 -12.286  37.784  1.00 35.88 LIG 0.25  C 
ATOM      2 O    TRP D   1      11.733 -12.160  37.858  1.00 38.57 LIG-0.27  OA
ATOM      3  N   PRO D   2      13.923 -11.441  38.063  1.00 34.89 LIG-0.34  N 
ATOM      4  CA  PRO D   2      13.713 -10.096  38.692  1.00 35.03 LIG 0.18  C 
ATOM      5  CB  PRO D   2      15.132  -9.613  38.797  1.00 35.34 LIG 0.04  C 
ATOM      6  CG  PRO D   2      15.864 -10.914  39.137  1.00 35.42 LIG 0.02  C 
ATOM      7  CD  PRO D   2      15.116 -12.083  38.589  1.00 35.14 LIG 0.13  C 
ENDROOT
BRANCH 4 8
ATOM      8  C   PRO D   2      12.777  -9.060  38.080  1.00 35.70 LIG 0.24  C 
ATOM      9 O    PRO D   2      12.162  -8.223  38.724  1.00 34.88 LIG-0.27  OA
ATOM     10  N   TRP D   3      12.763  -9.236  36.742  1.00 36.87 LIG-0.34  N 
ATOM     11 H    TRP D   3      13.358  -9.704  36.335  1.00 36.87 LIG 0.16  HD
BRANCH 10 12
ATOM     12  CA  TRP D   3      11.738  -8.656  35.805  1.00 37.56 LIG 0.19  C 
BRANCH 12 13
ATOM     13  C   TRP D   3      10.310  -9.272  35.558  1.00 38.92 LIG 0.20  C 
ATOM     14 OXT  TRP D   3       9.918 -10.334  36.148  1.00 41.38 LIG-0.65  OA
ATOM     15 O    TRP D   3       9.548  -8.645  34.674  1.00 40.06 LIG-0.65  OA
ENDBRANCH 12 13
BRANCH 12 16
ATOM     16  CB  TRP D   3      12.406  -8.360  34.411  1.00 36.55 LIG 0.08  C 
BRANCH 16 17
ATOM     17  CG  TRP D   3      12.739  -6.868  34.246  1.00 35.48 LIG-0.03  A 
ATOM     18  CD1 TRP D   3      11.836  -5.832  33.984  1.00 37.13 LIG 0.10  A 
ATOM     19  NE1 TRP D   3      12.514  -4.631  33.891  1.00 40.71 LIG-0.36  N 
ATOM     20 HE1  TRP D   3      12.150  -3.869  33.728  1.00 40.71 LIG 0.17  HD
ATOM     21  CE2 TRP D   3      13.861  -4.838  34.097  1.00 36.12 LIG 0.04  A 
ATOM     22  CD2 TRP D   3      14.048  -6.256  34.327  1.00 33.28 LIG-0.00  A 
ATOM     23  CZ2 TRP D   3      14.926  -3.902  34.079  1.00 34.49 LIG 0.03  A 
ATOM     24  CE3 TRP D   3      15.356  -6.762  34.534  1.00 31.46 LIG 0.01  A 
ATOM     25  CZ3 TRP D   3      16.433  -5.855  34.542  1.00 32.66 LIG 0.00  A 
ATOM     26  CH2 TRP D   3      16.209  -4.412  34.303  1.00 36.62 LIG 0.00  A 
ENDBRANCH 16 17
ENDBRANCH 12 16
ENDBRANCH 10 12
ENDBRANCH 4 8
BRANCH 1 27
ATOM     27  CA  TRP D   1      13.627 -13.524  37.065  1.00 34.78 LIG 0.28  C 
BRANCH 27 28
ATOM     28  CB  TRP D   1      14.229 -13.151  35.703  1.00 34.63 LIG 0.08  C 
BRANCH 28 29
ATOM     29  CG  TRP D   1      13.343 -13.641  34.519  1.00 37.87 LIG-0.03  A 
ATOM     30  CD1 TRP D   1      13.275 -14.929  33.991  1.00 40.68 LIG 0.10  A 
ATOM     31  NE1 TRP D   1      12.336 -14.971  32.979  1.00 42.18 LIG-0.36  N 
ATOM     32 HE1  TRP D   1      12.133 -15.666  32.516  1.00 42.18 LIG 0.17  HD
ATOM     33  CE2 TRP D   1      11.774 -13.712  32.832  1.00 41.11 LIG 0.04  A 
ATOM     34  CD2 TRP D   1      12.385 -12.854  33.776  1.00 38.74 LIG-0.00  A 
ATOM     35  CZ2 TRP D   1      10.762 -13.259  31.931  1.00 41.13 LIG 0.03  A 
ATOM     36  CE3 TRP D   1      11.953 -11.513  33.847  1.00 40.52 LIG 0.01  A 
ATOM     37  CZ3 TRP D   1      10.954 -11.062  32.948  1.00 41.02 LIG 0.00  A 
ATOM     38  CH2 TRP D   1      10.369 -11.943  32.012  1.00 39.74 LIG 0.00  A 
ENDBRANCH 28 29
ENDBRANCH 27 28
BRANCH 27 39
ATOM     39  N   TRP D   1      12.606 -14.616  36.859  1.00 33.45 LIG-0.07  N 
ATOM     40 H3   TRP D   1      12.212 -14.804  37.635  1.00 33.45 LIG 0.28  HD
ATOM     41 H2   TRP D   1      13.009 -15.345  36.545  1.00 33.45 LIG 0.28  HD
ATOM     42 H1   TRP D   1      11.992 -14.342  36.275  1.00 33.45 LIG 0.28  HD
ENDBRANCH 27 39
ENDBRANCH 1 27
TORSDOF 9
ENDMDL
MODEL 40
USER: ADFR SOLUTION from run 74
USER: SCORE 7.565233 LL:  -2.284 LR:  -5.282 RR:   0.000 FEB:  -2.597
USER: RMSD 2.534657
USER: SEED 73
USER: STATUS no improvement in best 11 clusters for 5 generations
USER: GENES 11
USER: genes 0 Translation |==|  0.50362 0.45115 0.59813
USER: genes 1 Rotation |==|  0.55540 0.43376 0.44018 0.98884
USER: genes 2 Torsion [N]-CA--C-[O] |==|  0.41702
USER: genes 3 Torsion [C]-N--CA-[CB] |==|  0.41218
USER: genes 4 Torsion [N]-CA--C-[OXT] |==|  0.99950
USER: genes 5 Torsion [N]-CA--CB-[CG] |==|  0.71911
USER: genes 6 Torsion [CA]-CB--CG-[CD1] |==|  0.79107
USER: genes 7 Torsion [N]-C--CA-[N] |==|  0.43228
USER: genes 8 Torsion [C]-CA--CB-[CG] |==|  0.50348
USER: genes 9 Torsion [CA]-CB--CG-[CD1] |==|  0.77897
USER: genes 10 Torsion [C]-CA--N-[H2] |==|  0.71153
ROOT
ATOM      1  C   TRP D   1      13.009 -12.286  37.784  1.00 35.88 LIG 0.25  C 
ATOM      2 O    TRP D   1      11.733 -12.160  37.858  1.00 38.57 LIG-0.27  OA
ATOM      3  N   PRO D   2      13.923 -11.441  38.063  1.00 34.89 LIG-0.34  N 
ATOM      4  CA  PRO D   2      13.713 -10.096  38.692  1.00 35.03 LIG 0.18  C 
ATOM      5  CB  PRO D   2      15.132  -9.613  38.797  1.00 35.34 LIG 0.04  C 
ATOM      6  CG  PRO D   2      15.864 -10.914  39.137  1.00 35.42 LIG 0.02  C 
ATOM      7  CD  PRO D   2      15.116 -12.083  38.589  1.00 35.14 LIG 0.13  C 
ENDROOT
BRANCH 4 8
ATOM      8  C   PRO D   2      12.777  -9.060  38.080  1.00 35.70 LIG 0.24  C 
ATOM      9 O    PRO D   2      12.162  -8.223  38.724  1.00 34.88 LIG-0.27  OA
ATOM     10  N   TRP D   3      12.763  -9.236  36.742  1.00 36.87 LIG-0.34  N 
ATOM     11 H    TRP D   3      13.358  -9.704  36.335  1.00 36.87 LIG 0.16  HD
BRANCH 10 12
ATOM     12  CA  TRP D   3      11.738  -8.656  35.805  1.00 37.56 LIG 0.19  C 
BRANCH 12 13
ATOM     13  C   TRP D   3      10.310  -9.272  35.558  1.00 38.92 LIG 0.20  C 
ATOM     14 OXT  TRP D   3       9.918 -10.334  36.148  1.00 41.38 LIG-0.65  OA
ATOM     15 O    TRP D   3       9.548  -8.645  34.674  1.00 40.06 LIG-0.65  OA
ENDBRANCH 12 13
BRANCH 12 16
ATOM     16  CB  TRP D   3      12.406  -8.360  34.411  1.00 36.55 LIG 0.08  C 
BRANCH 16 17
ATOM     17  CG  TRP D   3      12.739  -6.868  34.246  1.00 35.48 LIG-0.03  A 
ATOM     18  CD1 TRP D   3      11.836  -5.832  33.984  1.00 37.13 LIG 0.10  A 
ATOM     19  NE1 TRP D   3      12.514  -4.631  33.891  1.00 40.71 LIG-0.36  N 
ATOM     20 HE1  TRP D   3      12.150  -3.869  33.728  1.00 40.71 LIG 0.17  HD
ATOM     21  CE2 TRP D   3      13.861  -4.838  34.097  1.00 36.12 LIG 0.04  A 
ATOM     22  CD2 TRP D   3      14.048  -6.256  34.327  1.00 33.28 LIG-0.00  A 
ATOM     23  CZ2 TRP D   3      14.926  -3.902  34.079  1.00 34.49 LIG 0.03  A 
ATOM     24  CE3 TRP D   3      15.356  -6.762  34.534  1.00 31.46 LIG 0.01  A 
ATOM     25  CZ3 TRP D   3      16.433  -5.855  34.542  1.00 32.66 LIG 0.00  A 
ATOM     26  CH2 TRP D   3      16.209  -4.412  34.303  1.00 36.62 LIG 0.00  A 
ENDBRANCH 16 17
ENDBRANCH 12 16
ENDBRANCH 10 12
ENDBRANCH 4 8
BRANCH 1 27
ATOM     27  CA  TRP D   1      13.627 -13.524  37.065  1.00 34.78 LIG 0.28  C 
BRANCH 27 28
ATOM     28  CB  TRP D   1      13.827 -13.271  35.564  1.00 34.63 LIG 0.08  C 
BRANCH 28 29
ATOM     29  CG  TRP D   1      14.415 -14.516  34.835  1.00 37.87 LIG-0.03  A 
ATOM     30  CD1 TRP D   1      15.746 -14.929  34.808  1.00 40.68 LIG 0.10  A 
ATOM     31  NE1 TRP D   1      15.857 -16.106  34.095  1.00 42.18 LIG-0.36  N 
ATOM     32 HE1  TRP D   1      16.587 -16.536  33.952  1.00 42.18 LIG 0.17  HD
ATOM     33  CE2 TRP D   1      14.599 -16.483  33.647  1.00 41.11 LIG 0.04  A 
ATOM     34  CD2 TRP D   1      13.675 -15.507  34.088  1.00 38.74 LIG-0.00  A 
ATOM     35  CZ2 TRP D   1      14.201 -17.621  32.880  1.00 41.13 LIG 0.03  A 
ATOM     36  CE3 TRP D   1      12.309 -15.686  33.784  1.00 40.52 LIG 0.01  A 
ATOM     37  CZ3 TRP D   1      11.916 -16.812  33.017  1.00 41.02 LIG 0.00  A 
ATOM     38  CH2 TRP D   1      12.865 -17.765  32.586  1.00 39.74 LIG 0.00  A 
ENDBRANCH 28 29
ENDBRANCH 27 28
BRANCH 27 39
ATOM     39  N   TRP D   1      12.770 -14.754  37.238  1.00 33.45 LIG-0.07  N 
ATOM     40 H3   TRP D   1      11.958 -14.514  37.514  1.00 33.45 LIG 0.28  HD
ATOM     41 H2   TRP D   1      13.141 -15.293  37.842  1.00 33.45 LIG 0.28  HD
ATOM     42 H1   TRP D   1      12.704 -15.182  36.461  1.00 33.45 LIG 0.28  HD
ENDBRANCH 27 39
ENDBRANCH 1 27
TORSDOF 9
ENDMDL
MODEL 41
USER: ADFR SOLUTION from run 13
USER: SCORE 7.437789 LL:  -2.204 LR:  -5.234 RR:   0.000 FEB:  -2.549
USER: RMSD 3.111716
USER: SEED 538603
USER: STATUS no improvement in best 9 clusters for 5 generations
USER: GENES 11
USER: genes 0 Translation |==|  0.45267 0.52082 0.55526
USER: genes 1 Rotation |==|  0.55363 0.31517 0.42005 0.95450
USER: genes 2 Torsion [N]-CA--C-[O] |==|  0.28963
USER: genes 3 Torsion [C]-N--CA-[CB] |==|  0.39058
USER: genes 4 Torsion [N]-CA--C-[OXT] |==|  0.00592
USER: genes 5 Torsion [N]-CA--CB-[CG] |==|  0.23760
USER: genes 6 Torsion [CA]-CB--CG-[CD1] |==|  0.80700
USER: genes 7 Torsion [N]-C--CA-[N] |==|  0.35603
USER: genes 8 Torsion [C]-CA--CB-[CG] |==|  0.53634
USER: genes 9 Torsion [CA]-CB--CG-[CD1] |==|  0.35675
USER: genes 10 Torsion [C]-CA--N-[H2] |==|  0.57042
ROOT
ATOM      1  C   TRP D   1      11.480 -10.196  36.498  1.00 35.88 LIG 0.25  C 
ATOM      2 O    TRP D   1      10.346  -9.894  35.977  1.00 38.57 LIG-0.27  OA
ATOM      3  N   PRO D   2      12.284  -9.464  37.165  1.00 34.89 LIG-0.34  N 
ATOM      4  CA  PRO D   2      12.020  -8.061  37.625  1.00 35.03 LIG 0.18  C 
ATOM      5  CB  PRO D   2      13.291  -7.769  38.370  1.00 35.34 LIG 0.04  C 
ATOM      6  CG  PRO D   2      13.580  -9.129  39.011  1.00 35.42 LIG 0.02  C 
ATOM      7  CD  PRO D   2      12.994 -10.222  38.182  1.00 35.14 LIG 0.13  C 
ENDROOT
BRANCH 4 8
ATOM      8  C   PRO D   2      11.636  -6.956  36.649  1.00 35.70 LIG 0.24  C 
ATOM      9 O    PRO D   2      10.503  -6.513  36.522  1.00 34.88 LIG-0.27  OA
ATOM     10  N   TRP D   3      12.744  -6.570  35.983  1.00 36.87 LIG-0.34  N 
ATOM     11 H    TRP D   3      13.534  -6.776  36.251  1.00 36.87 LIG 0.16  HD
BRANCH 10 12
ATOM     12  CA  TRP D   3      12.752  -5.754  34.718  1.00 37.56 LIG 0.19  C 
BRANCH 12 13
ATOM     13  C   TRP D   3      12.680  -6.362  33.268  1.00 38.92 LIG 0.20  C 
ATOM     14 OXT  TRP D   3      12.567  -7.616  33.062  1.00 41.38 LIG-0.65  OA
ATOM     15 O    TRP D   3      12.776  -5.498  32.267  1.00 40.06 LIG-0.65  OA
ENDBRANCH 12 13
BRANCH 12 16
ATOM     16  CB  TRP D   3      13.933  -4.715  34.770  1.00 36.55 LIG 0.08  C 
BRANCH 16 17
ATOM     17  CG  TRP D   3      15.254  -5.331  34.279  1.00 35.48 LIG-0.03  A 
ATOM     18  CD1 TRP D   3      16.013  -6.310  34.929  1.00 37.13 LIG 0.10  A 
ATOM     19  NE1 TRP D   3      17.142  -6.599  34.185  1.00 40.71 LIG-0.36  N 
ATOM     20 HE1  TRP D   3      17.748  -7.168  34.406  1.00 40.71 LIG 0.17  HD
ATOM     21  CE2 TRP D   3      17.151  -5.837  33.036  1.00 36.12 LIG 0.04  A 
ATOM     22  CD2 TRP D   3      15.961  -5.011  33.058  1.00 33.28 LIG-0.00  A 
ATOM     23  CZ2 TRP D   3      18.114  -5.793  31.996  1.00 34.49 LIG 0.03  A 
ATOM     24  CE3 TRP D   3      15.731  -4.092  32.003  1.00 31.46 LIG 0.01  A 
ATOM     25  CZ3 TRP D   3      16.659  -4.039  30.945  1.00 32.66 LIG 0.00  A 
ATOM     26  CH2 TRP D   3      17.865  -4.895  30.953  1.00 36.62 LIG 0.00  A 
ENDBRANCH 16 17
ENDBRANCH 12 16
ENDBRANCH 10 12
ENDBRANCH 4 8
BRANCH 1 27
ATOM     27  CA  TRP D   1      12.160 -11.555  36.146  1.00 34.78 LIG 0.28  C 
BRANCH 27 28
ATOM     28  CB  TRP D   1      12.473 -11.664  34.647  1.00 34.63 LIG 0.08  C 
BRANCH 28 29
ATOM     29  CG  TRP D   1      12.844 -13.120  34.233  1.00 37.87 LIG-0.03  A 
ATOM     30  CD1 TRP D   1      12.294 -13.869  33.194  1.00 40.68 LIG 0.10  A 
ATOM     31  NE1 TRP D   1      12.923 -15.096  33.118  1.00 42.18 LIG-0.36  N 
ATOM     32 HE1  TRP D   1      12.741 -15.716  32.551  1.00 42.18 LIG 0.17  HD
ATOM     33  CE2 TRP D   1      13.897 -15.166  34.103  1.00 41.11 LIG 0.04  A 
ATOM     34  CD2 TRP D   1      13.870 -13.948  34.822  1.00 38.74 LIG-0.00  A 
ATOM     35  CZ2 TRP D   1      14.809 -16.220  34.417  1.00 41.13 LIG 0.03  A 
ATOM     36  CE3 TRP D   1      14.802 -13.762  35.865  1.00 40.52 LIG 0.01  A 
ATOM     37  CZ3 TRP D   1      15.702 -14.810  36.182  1.00 41.02 LIG 0.00  A 
ATOM     38  CH2 TRP D   1      15.698 -16.017  35.448  1.00 39.74 LIG 0.00  A 
ENDBRANCH 28 29
ENDBRANCH 27 28
BRANCH 27 39
ATOM     39  N   TRP D   1      11.301 -12.728  36.547  1.00 33.45 LIG-0.07  N 
ATOM     40 H3   TRP D   1      10.860 -12.531  37.295  1.00 33.45 LIG 0.28  HD
ATOM     41 H2   TRP D   1      11.815 -13.441  36.685  1.00 33.45 LIG 0.28  HD
ATOM     42 H1   TRP D   1      10.718 -12.905  35.899  1.00 33.45 LIG 0.28  HD
ENDBRANCH 27 39
ENDBRANCH 1 27
TORSDOF 9
ENDMDL
MODEL 42
USER: ADFR SOLUTION from run 52
USER: SCORE 7.097783 LL:  -1.879 LR:  -5.219 RR:   0.000 FEB:  -2.534
USER: RMSD 2.728257
USER: SEED 51
USER: STATUS no improvement in best 10 clusters for 5 generations
USER: GENES 11
USER: genes 0 Translation |==|  0.52246 0.42051 0.62487
USER: genes 1 Rotation |==|  0.44317 0.43942 0.53730 0.99164
USER: genes 2 Torsion [N]-CA--C-[O] |==|  0.09044
USER: genes 3 Torsion [C]-N--CA-[CB] |==|  0.70656
USER: genes 4 Torsion [N]-CA--C-[OXT] |==|  0.09529
USER: genes 5 Torsion [N]-CA--CB-[CG] |==|  0.69990
USER: genes 6 Torsion [CA]-CB--CG-[CD1] |==|  0.84605
USER: genes 7 Torsion [N]-C--CA-[N] |==|  0.43969
USER: genes 8 Torsion [C]-CA--CB-[CG] |==|  0.73481
USER: genes 9 Torsion [CA]-CB--CG-[CD1] |==|  0.25081
USER: genes 10 Torsion [C]-CA--N-[H2] |==|  0.81884
ROOT
ATOM      1  C   TRP D   1      13.574 -13.205  38.586  1.00 35.88 LIG 0.25  C 
ATOM      2 O    TRP D   1      12.323 -13.451  38.736  1.00 38.57 LIG-0.27  OA
ATOM      3  N   PRO D   2      14.157 -12.098  38.339  1.00 34.89 LIG-0.34  N 
ATOM      4  CA  PRO D   2      13.501 -10.750  38.295  1.00 35.03 LIG 0.18  C 
ATOM      5  CB  PRO D   2      14.687  -9.873  38.006  1.00 35.34 LIG 0.04  C 
ATOM      6  CG  PRO D   2      15.778 -10.568  38.823  1.00 35.42 LIG 0.02  C 
ATOM      7  CD  PRO D   2      15.467 -12.021  38.965  1.00 35.14 LIG 0.13  C 
ENDROOT
BRANCH 4 8
ATOM      8  C   PRO D   2      12.314 -10.464  37.383  1.00 35.70 LIG 0.24  C 
ATOM      9 O    PRO D   2      11.465 -11.289  37.080  1.00 34.88 LIG-0.27  OA
ATOM     10  N   TRP D   3      12.377  -9.174  36.993  1.00 36.87 LIG-0.34  N 
ATOM     11 H    TRP D   3      12.878  -8.599  37.390  1.00 36.87 LIG 0.16  HD
BRANCH 10 12
ATOM     12  CA  TRP D   3      11.603  -8.578  35.847  1.00 37.56 LIG 0.19  C 
BRANCH 12 13
ATOM     13  C   TRP D   3      10.242  -9.150  35.302  1.00 38.92 LIG 0.20  C 
ATOM     14 OXT  TRP D   3       9.377  -9.691  36.069  1.00 41.38 LIG-0.65  OA
ATOM     15 O    TRP D   3      10.056  -9.068  33.992  1.00 40.06 LIG-0.65  OA
ENDBRANCH 12 13
BRANCH 12 16
ATOM     16  CB  TRP D   3      12.570  -8.334  34.630  1.00 36.55 LIG 0.08  C 
BRANCH 16 17
ATOM     17  CG  TRP D   3      12.852  -6.837  34.419  1.00 35.48 LIG-0.03  A 
ATOM     18  CD1 TRP D   3      11.905  -5.824  34.234  1.00 37.13 LIG 0.10  A 
ATOM     19  NE1 TRP D   3      12.542  -4.610  34.065  1.00 40.71 LIG-0.36  N 
ATOM     20 HE1  TRP D   3      12.148  -3.858  33.931  1.00 40.71 LIG 0.17  HD
ATOM     21  CE2 TRP D   3      13.907  -4.785  34.145  1.00 36.12 LIG 0.04  A 
ATOM     22  CD2 TRP D   3      14.148  -6.196  34.369  1.00 33.28 LIG-0.00  A 
ATOM     23  CZ2 TRP D   3      14.945  -3.826  34.017  1.00 34.49 LIG 0.03  A 
ATOM     24  CE3 TRP D   3      15.481  -6.670  34.456  1.00 31.46 LIG 0.01  A 
ATOM     25  CZ3 TRP D   3      16.533  -5.739  34.353  1.00 32.66 LIG 0.00  A 
ATOM     26  CH2 TRP D   3      16.254  -4.305  34.122  1.00 36.62 LIG 0.00  A 
ENDBRANCH 16 17
ENDBRANCH 12 16
ENDBRANCH 10 12
ENDBRANCH 4 8
BRANCH 1 27
ATOM     27  CA  TRP D   1      14.587 -14.384  38.456  1.00 34.78 LIG 0.28  C 
BRANCH 27 28
ATOM     28  CB  TRP D   1      14.815 -14.780  36.991  1.00 34.63 LIG 0.08  C 
BRANCH 28 29
ATOM     29  CG  TRP D   1      13.906 -15.970  36.559  1.00 37.87 LIG-0.03  A 
ATOM     30  CD1 TRP D   1      12.629 -15.900  36.005  1.00 40.68 LIG 0.10  A 
ATOM     31  NE1 TRP D   1      12.174 -17.171  35.715  1.00 42.18 LIG-0.36  N 
ATOM     32 HE1  TRP D   1      11.410 -17.361  35.369  1.00 42.18 LIG 0.17  HD
ATOM     33  CE2 TRP D   1      13.147 -18.092  36.072  1.00 41.11 LIG 0.04  A 
ATOM     34  CD2 TRP D   1      14.242 -17.374  36.609  1.00 38.74 LIG-0.00  A 
ATOM     35  CZ2 TRP D   1      13.148 -19.516  35.961  1.00 41.13 LIG 0.03  A 
ATOM     36  CE3 TRP D   1      15.384 -18.094  37.018  1.00 40.52 LIG 0.01  A 
ATOM     37  CZ3 TRP D   1      15.382 -19.508  36.914  1.00 41.02 LIG 0.00  A 
ATOM     38  CH2 TRP D   1      14.270 -20.195  36.380  1.00 39.74 LIG 0.00  A 
ENDBRANCH 28 29
ENDBRANCH 27 28
BRANCH 27 39
ATOM     39  N   TRP D   1      14.126 -15.601  39.220  1.00 33.45 LIG-0.07  N 
ATOM     40 H3   TRP D   1      13.307 -15.826  38.954  1.00 33.45 LIG 0.28  HD
ATOM     41 H2   TRP D   1      14.116 -15.419  40.091  1.00 33.45 LIG 0.28  HD
ATOM     42 H1   TRP D   1      14.683 -16.277  39.066  1.00 33.45 LIG 0.28  HD
ENDBRANCH 27 39
ENDBRANCH 1 27
TORSDOF 9
ENDMDL
MODEL 43
USER: ADFR SOLUTION from run 130
USER: SCORE 9.291149 LL:  -4.092 LR:  -5.199 RR:   0.000 FEB:  -2.514
USER: RMSD 3.767385
USER: SEED 129
USER: STATUS no improvement in best 23 clusters for 5 generations
USER: GENES 11
USER: genes 0 Translation |==|  0.44591 0.50590 0.55045
USER: genes 1 Rotation |==|  0.54443 0.36348 0.40630 0.96969
USER: genes 2 Torsion [N]-CA--C-[O] |==|  0.47630
USER: genes 3 Torsion [C]-N--CA-[CB] |==|  0.33219
USER: genes 4 Torsion [N]-CA--C-[OXT] |==|  0.49081
USER: genes 5 Torsion [N]-CA--CB-[CG] |==|  0.83452
USER: genes 6 Torsion [CA]-CB--CG-[CD1] |==|  0.96040
USER: genes 7 Torsion [N]-C--CA-[N] |==|  0.38924
USER: genes 8 Torsion [C]-CA--CB-[CG] |==|  0.15126
USER: genes 9 Torsion [CA]-CB--CG-[CD1] |==|  0.66776
USER: genes 10 Torsion [C]-CA--N-[H2] |==|  0.74687
ROOT
ATOM      1  C   TRP D   1      11.277 -10.643  36.353  1.00 35.88 LIG 0.25  C 
ATOM      2 O    TRP D   1      10.071 -10.298  36.083  1.00 38.57 LIG-0.27  OA
ATOM      3  N   PRO D   2      12.228  -9.947  36.843  1.00 34.89 LIG-0.34  N 
ATOM      4  CA  PRO D   2      12.113  -8.544  37.359  1.00 35.03 LIG 0.18  C 
ATOM      5  CB  PRO D   2      13.521  -8.303  37.825  1.00 35.34 LIG 0.04  C 
ATOM      6  CG  PRO D   2      13.891  -9.680  38.381  1.00 35.42 LIG 0.02  C 
ATOM      7  CD  PRO D   2      13.108 -10.743  37.684  1.00 35.14 LIG 0.13  C 
ENDROOT
BRANCH 4 8
ATOM      8  C   PRO D   2      11.572  -7.412  36.494  1.00 35.70 LIG 0.24  C 
ATOM      9 O    PRO D   2      11.319  -6.291  36.908  1.00 34.88 LIG-0.27  OA
ATOM     10  N   TRP D   3      11.435  -7.868  35.231  1.00 36.87 LIG-0.34  N 
ATOM     11 H    TRP D   3      11.810  -8.595  34.964  1.00 36.87 LIG 0.16  HD
BRANCH 10 12
ATOM     12  CA  TRP D   3      10.636  -7.193  34.150  1.00 37.56 LIG 0.19  C 
BRANCH 12 13
ATOM     13  C   TRP D   3       9.281  -7.746  33.569  1.00 38.92 LIG 0.20  C 
ATOM     14 OXT  TRP D   3       8.605  -7.106  32.695  1.00 41.38 LIG-0.65  OA
ATOM     15 O    TRP D   3       8.861  -8.901  34.065  1.00 40.06 LIG-0.65  OA
ENDBRANCH 12 13
BRANCH 12 16
ATOM     16  CB  TRP D   3      11.582  -6.820  32.949  1.00 36.55 LIG 0.08  C 
BRANCH 16 17
ATOM     17  CG  TRP D   3      12.712  -5.874  33.389  1.00 35.48 LIG-0.03  A 
ATOM     18  CD1 TRP D   3      12.782  -5.153  34.585  1.00 37.13 LIG 0.10  A 
ATOM     19  NE1 TRP D   3      13.943  -4.403  34.614  1.00 40.71 LIG-0.36  N 
ATOM     20 HE1  TRP D   3      14.179  -3.881  35.256  1.00 40.71 LIG 0.17  HD
ATOM     21  CE2 TRP D   3      14.664  -4.616  33.459  1.00 36.12 LIG 0.04  A 
ATOM     22  CD2 TRP D   3      13.911  -5.550  32.648  1.00 33.28 LIG-0.00  A 
ATOM     23  CZ2 TRP D   3      15.901  -4.049  33.056  1.00 34.49 LIG 0.03  A 
ATOM     24  CE3 TRP D   3      14.408  -5.924  31.373  1.00 31.46 LIG 0.01  A 
ATOM     25  CZ3 TRP D   3      15.643  -5.393  30.952  1.00 32.66 LIG 0.00  A 
ATOM     26  CH2 TRP D   3      16.387  -4.440  31.804  1.00 36.62 LIG 0.00  A 
ENDBRANCH 16 17
ENDBRANCH 12 16
ENDBRANCH 10 12
ENDBRANCH 4 8
BRANCH 1 27
ATOM     27  CA  TRP D   1      11.823 -12.018  35.856  1.00 34.78 LIG 0.28  C 
BRANCH 27 28
ATOM     28  CB  TRP D   1      12.090 -12.012  34.345  1.00 34.63 LIG 0.08  C 
BRANCH 28 29
ATOM     29  CG  TRP D   1      13.034 -10.846  33.923  1.00 37.87 LIG-0.03  A 
ATOM     30  CD1 TRP D   1      12.750  -9.806  33.040  1.00 40.68 LIG 0.10  A 
ATOM     31  NE1 TRP D   1      13.828  -8.947  32.966  1.00 42.18 LIG-0.36  N 
ATOM     32 HE1  TRP D   1      13.870  -8.239  32.480  1.00 42.18 LIG 0.17  HD
ATOM     33  CE2 TRP D   1      14.832  -9.409  33.803  1.00 41.11 LIG 0.04  A 
ATOM     34  CD2 TRP D   1      14.370 -10.600  34.414  1.00 38.74 LIG-0.00  A 
ATOM     35  CZ2 TRP D   1      16.125  -8.865  34.073  1.00 41.13 LIG 0.03  A 
ATOM     36  CE3 TRP D   1      15.208 -11.248  35.345  1.00 40.52 LIG 0.01  A 
ATOM     37  CZ3 TRP D   1      16.494 -10.711  35.607  1.00 41.02 LIG 0.00  A 
ATOM     38  CH2 TRP D   1      16.928  -9.525  34.976  1.00 39.74 LIG 0.00  A 
ENDBRANCH 28 29
ENDBRANCH 27 28
BRANCH 27 39
ATOM     39  N   TRP D   1      10.869 -13.143  36.175  1.00 33.45 LIG-0.07  N 
ATOM     40 H3   TRP D   1      10.036 -12.829  36.194  1.00 33.45 LIG 0.28  HD
ATOM     41 H2   TRP D   1      11.073 -13.491  36.969  1.00 33.45 LIG 0.28  HD
ATOM     42 H1   TRP D   1      10.933 -13.773  35.550  1.00 33.45 LIG 0.28  HD
ENDBRANCH 27 39
ENDBRANCH 1 27
TORSDOF 9
ENDMDL
MODEL 44
USER: ADFR SOLUTION from run 105
USER: SCORE 9.048936 LL:  -3.862 LR:  -5.187 RR:   0.000 FEB:  -2.502
USER: RMSD 4.150282
USER: SEED 104
USER: STATUS no improvement in best 10 clusters for 5 generations
USER: GENES 11
USER: genes 0 Translation |==|  0.51387 0.46552 0.57774
USER: genes 1 Rotation |==|  0.51119 0.43720 0.62028 0.98111
USER: genes 2 Torsion [N]-CA--C-[O] |==|  0.99956
USER: genes 3 Torsion [C]-N--CA-[CB] |==|  0.81796
USER: genes 4 Torsion [N]-CA--C-[OXT] |==|  0.48149
USER: genes 5 Torsion [N]-CA--CB-[CG] |==|  0.86420
USER: genes 6 Torsion [CA]-CB--CG-[CD1] |==|  0.91607
USER: genes 7 Torsion [N]-C--CA-[N] |==|  0.42639
USER: genes 8 Torsion [C]-CA--CB-[CG] |==|  0.12715
USER: genes 9 Torsion [CA]-CB--CG-[CD1] |==|  0.71449
USER: genes 10 Torsion [C]-CA--N-[H2] |==|  0.74339
ROOT
ATOM      1  C   TRP D   1      13.316 -11.854  37.172  1.00 35.88 LIG 0.25  C 
ATOM      2 O    TRP D   1      12.248 -12.560  37.266  1.00 38.57 LIG-0.27  OA
ATOM      3  N   PRO D   2      13.452 -10.586  37.180  1.00 34.89 LIG-0.34  N 
ATOM      4  CA  PRO D   2      12.365  -9.588  37.444  1.00 35.03 LIG 0.18  C 
ATOM      5  CB  PRO D   2      13.140  -8.303  37.357  1.00 35.34 LIG 0.04  C 
ATOM      6  CG  PRO D   2      14.470  -8.714  37.993  1.00 35.42 LIG 0.02  C 
ATOM      7  CD  PRO D   2      14.700 -10.176  37.804  1.00 35.14 LIG 0.13  C 
ENDROOT
BRANCH 4 8
ATOM      8  C   PRO D   2      11.081  -9.564  36.623  1.00 35.70 LIG 0.24  C 
ATOM      9 O    PRO D   2      10.837 -10.332  35.705  1.00 34.88 LIG-0.27  OA
ATOM     10  N   TRP D   3      10.294  -8.572  37.090  1.00 36.87 LIG-0.34  N 
ATOM     11 H    TRP D   3      10.431  -8.199  37.853  1.00 36.87 LIG 0.16  HD
BRANCH 10 12
ATOM     12  CA  TRP D   3       9.106  -7.998  36.367  1.00 37.56 LIG 0.19  C 
BRANCH 12 13
ATOM     13  C   TRP D   3       7.790  -8.799  36.043  1.00 38.92 LIG 0.20  C 
ATOM     14 OXT  TRP D   3       6.760  -8.238  35.539  1.00 41.38 LIG-0.65  OA
ATOM     15 O    TRP D   3       7.798 -10.087  36.355  1.00 40.06 LIG-0.65  OA
ENDBRANCH 12 13
BRANCH 12 16
ATOM     16  CB  TRP D   3       9.587  -7.270  35.057  1.00 36.55 LIG 0.08  C 
BRANCH 16 17
ATOM     17  CG  TRP D   3      10.760  -6.315  35.336  1.00 35.48 LIG-0.03  A 
ATOM     18  CD1 TRP D   3      11.008  -5.619  36.523  1.00 37.13 LIG 0.10  A 
ATOM     19  NE1 TRP D   3      12.149  -4.850  36.387  1.00 40.71 LIG-0.36  N 
ATOM     20 HE1  TRP D   3      12.477  -4.339  36.995  1.00 40.71 LIG 0.17  HD
ATOM     21  CE2 TRP D   3      12.682  -5.026  35.128  1.00 36.12 LIG 0.04  A 
ATOM     22  CD2 TRP D   3      11.822  -5.954  34.423  1.00 33.28 LIG-0.00  A 
ATOM     23  CZ2 TRP D   3      13.831  -4.430  34.548  1.00 34.49 LIG 0.03  A 
ATOM     24  CE3 TRP D   3      12.117  -6.292  33.077  1.00 31.46 LIG 0.01  A 
ATOM     25  CZ3 TRP D   3      13.263  -5.733  32.480  1.00 32.66 LIG 0.00  A 
ATOM     26  CH2 TRP D   3      14.119  -4.786  33.226  1.00 36.62 LIG 0.00  A 
ENDBRANCH 16 17
ENDBRANCH 12 16
ENDBRANCH 10 12
ENDBRANCH 4 8
BRANCH 1 27
ATOM     27  CA  TRP D   1      14.664 -12.534  36.776  1.00 34.78 LIG 0.28  C 
BRANCH 27 28
ATOM     28  CB  TRP D   1      14.837 -12.610  35.253  1.00 34.63 LIG 0.08  C 
BRANCH 28 29
ATOM     29  CG  TRP D   1      14.480 -11.263  34.557  1.00 37.87 LIG-0.03  A 
ATOM     30  CD1 TRP D   1      13.312 -10.955  33.860  1.00 40.68 LIG 0.10  A 
ATOM     31  NE1 TRP D   1      13.354  -9.642  33.433  1.00 42.18 LIG-0.36  N 
ATOM     32 HE1  TRP D   1      12.739  -9.244  32.983  1.00 42.18 LIG 0.17  HD
ATOM     33  CE2 TRP D   1      14.548  -9.070  33.847  1.00 41.11 LIG 0.04  A 
ATOM     34  CD2 TRP D   1      15.278 -10.059  34.549  1.00 38.74 LIG-0.00  A 
ATOM     35  CZ2 TRP D   1      15.044  -7.745  33.657  1.00 41.13 LIG 0.03  A 
ATOM     36  CE3 TRP D   1      16.526  -9.706  35.104  1.00 40.52 LIG 0.01  A 
ATOM     37  CZ3 TRP D   1      17.022  -8.392  34.909  1.00 41.02 LIG 0.00  A 
ATOM     38  CH2 TRP D   1      16.270  -7.431  34.198  1.00 39.74 LIG 0.00  A 
ENDBRANCH 28 29
ENDBRANCH 27 28
BRANCH 27 39
ATOM     39  N   TRP D   1      14.772 -13.927  37.346  1.00 33.45 LIG-0.07  N 
ATOM     40 H3   TRP D   1      13.957 -14.270  37.451  1.00 33.45 LIG 0.28  HD
ATOM     41 H2   TRP D   1      15.185 -13.895  38.134  1.00 33.45 LIG 0.28  HD
ATOM     42 H1   TRP D   1      15.239 -14.441  36.788  1.00 33.45 LIG 0.28  HD
ENDBRANCH 27 39
ENDBRANCH 1 27
TORSDOF 9
ENDMDL
MODEL 45
USER: ADFR SOLUTION from run 38
USER: SCORE 7.300365 LL:  -2.122 LR:  -5.178 RR:   0.000 FEB:  -2.493
USER: RMSD 2.186297
USER: SEED 37
USER: STATUS no improvement in best 10 clusters for 5 generations
USER: GENES 11
USER: genes 0 Translation |==|  0.48653 0.47566 0.57241
USER: genes 1 Rotation |==|  0.54207 0.36747 0.56619 0.97569
USER: genes 2 Torsion [N]-CA--C-[O] |==|  0.22129
USER: genes 3 Torsion [C]-N--CA-[CB] |==|  0.68836
USER: genes 4 Torsion [N]-CA--C-[OXT] |==|  0.13556
USER: genes 5 Torsion [N]-CA--CB-[CG] |==|  0.75889
USER: genes 6 Torsion [CA]-CB--CG-[CD1] |==|  0.80222
USER: genes 7 Torsion [N]-C--CA-[N] |==|  0.47492
USER: genes 8 Torsion [C]-CA--CB-[CG] |==|  0.68724
USER: genes 9 Torsion [CA]-CB--CG-[CD1] |==|  0.25539
USER: genes 10 Torsion [C]-CA--N-[H2] |==|  0.82934
ROOT
ATOM      1  C   TRP D   1      12.496 -11.550  37.012  1.00 35.88 LIG 0.25  C 
ATOM      2 O    TRP D   1      11.337 -12.013  36.711  1.00 38.57 LIG-0.27  OA
ATOM      3  N   PRO D   2      12.833 -10.366  37.344  1.00 34.89 LIG-0.34  N 
ATOM      4  CA  PRO D   2      11.895  -9.223  37.596  1.00 35.03 LIG 0.18  C 
ATOM      5  CB  PRO D   2      12.867  -8.143  37.977  1.00 35.34 LIG 0.04  C 
ATOM      6  CG  PRO D   2      13.906  -8.943  38.767  1.00 35.42 LIG 0.02  C 
ATOM      7  CD  PRO D   2      13.932 -10.358  38.296  1.00 35.14 LIG 0.13  C 
ENDROOT
BRANCH 4 8
ATOM      8  C   PRO D   2      10.882  -8.770  36.551  1.00 35.70 LIG 0.24  C 
ATOM      9 O    PRO D   2       9.815  -9.327  36.340  1.00 34.88 LIG-0.27  OA
ATOM     10  N   TRP D   3      11.370  -7.676  35.931  1.00 36.87 LIG-0.34  N 
ATOM     11 H    TRP D   3      12.026  -7.221  36.253  1.00 36.87 LIG 0.16  HD
BRANCH 10 12
ATOM     12  CA  TRP D   3      10.854  -7.115  34.633  1.00 37.56 LIG 0.19  C 
BRANCH 12 13
ATOM     13  C   TRP D   3       9.441  -7.444  34.022  1.00 38.92 LIG 0.20  C 
ATOM     14 OXT  TRP D   3       8.371  -7.378  34.713  1.00 41.38 LIG-0.65  OA
ATOM     15 O    TRP D   3       9.428  -7.829  32.753  1.00 40.06 LIG-0.65  OA
ENDBRANCH 12 13
BRANCH 12 16
ATOM     16  CB  TRP D   3      11.942  -7.298  33.510  1.00 36.55 LIG 0.08  C 
BRANCH 16 17
ATOM     17  CG  TRP D   3      12.938  -6.125  33.488  1.00 35.48 LIG-0.03  A 
ATOM     18  CD1 TRP D   3      12.681  -4.817  33.063  1.00 37.13 LIG 0.10  A 
ATOM     19  NE1 TRP D   3      13.826  -4.053  33.178  1.00 40.71 LIG-0.36  N 
ATOM     20 HE1  TRP D   3      13.890  -3.222  32.965  1.00 40.71 LIG 0.17  HD
ATOM     21  CE2 TRP D   3      14.851  -4.822  33.686  1.00 36.12 LIG 0.04  A 
ATOM     22  CD2 TRP D   3      14.325  -6.155  33.896  1.00 33.28 LIG-0.00  A 
ATOM     23  CZ2 TRP D   3      16.196  -4.461  33.955  1.00 34.49 LIG 0.03  A 
ATOM     24  CE3 TRP D   3      15.182  -7.174  34.384  1.00 31.46 LIG 0.01  A 
ATOM     25  CZ3 TRP D   3      16.518  -6.842  34.680  1.00 32.66 LIG 0.00  A 
ATOM     26  CH2 TRP D   3      17.026  -5.472  34.452  1.00 36.62 LIG 0.00  A 
ENDBRANCH 16 17
ENDBRANCH 12 16
ENDBRANCH 10 12
ENDBRANCH 4 8
BRANCH 1 27
ATOM     27  CA  TRP D   1      13.768 -12.418  36.763  1.00 34.78 LIG 0.28  C 
BRANCH 27 28
ATOM     28  CB  TRP D   1      14.550 -11.943  35.531  1.00 34.63 LIG 0.08  C 
BRANCH 28 29
ATOM     29  CG  TRP D   1      14.509 -12.987  34.375  1.00 37.87 LIG-0.03  A 
ATOM     30  CD1 TRP D   1      13.591 -13.055  33.329  1.00 40.68 LIG 0.10  A 
ATOM     31  NE1 TRP D   1      13.921 -14.094  32.482  1.00 42.18 LIG-0.36  N 
ATOM     32 HE1  TRP D   1      13.488 -14.317  31.773  1.00 42.18 LIG 0.17  HD
ATOM     33  CE2 TRP D   1      15.062 -14.720  32.959  1.00 41.11 LIG 0.04  A 
ATOM     34  CD2 TRP D   1      15.454 -14.056  34.146  1.00 38.74 LIG-0.00  A 
ATOM     35  CZ2 TRP D   1      15.788 -15.831  32.431  1.00 41.13 LIG 0.03  A 
ATOM     36  CE3 TRP D   1      16.621 -14.492  34.808  1.00 40.52 LIG 0.01  A 
ATOM     37  CZ3 TRP D   1      17.337 -15.599  34.287  1.00 41.02 LIG 0.00  A 
ATOM     38  CH2 TRP D   1      16.916 -16.244  33.104  1.00 39.74 LIG 0.00  A 
ENDBRANCH 28 29
ENDBRANCH 27 28
BRANCH 27 39
ATOM     39  N   TRP D   1      13.421 -13.876  36.584  1.00 33.45 LIG-0.07  N 
ATOM     40 H3   TRP D   1      12.862 -13.965  35.897  1.00 33.45 LIG 0.28  HD
ATOM     41 H2   TRP D   1      13.034 -14.183  37.324  1.00 33.45 LIG 0.28  HD
ATOM     42 H1   TRP D   1      14.163 -14.340  36.423  1.00 33.45 LIG 0.28  HD
ENDBRANCH 27 39
ENDBRANCH 1 27
TORSDOF 9
ENDMDL
MODEL 46
USER: ADFR SOLUTION from run 17
USER: SCORE 7.637874 LL:  -2.458 LR:  -5.179 RR:   0.000 FEB:  -2.495
USER: RMSD 3.079691
USER: SEED 16
USER: STATUS no improvement in best 27 clusters for 5 generations
USER: GENES 11
USER: genes 0 Translation |==|  0.55197 0.45891 0.62967
USER: genes 1 Rotation |==|  0.37293 0.59421 0.49235 0.97426
USER: genes 2 Torsion [N]-CA--C-[O] |==|  0.14913
USER: genes 3 Torsion [C]-N--CA-[CB] |==|  0.53484
USER: genes 4 Torsion [N]-CA--C-[OXT] |==|  0.15500
USER: genes 5 Torsion [N]-CA--CB-[CG] |==|  0.79823
USER: genes 6 Torsion [CA]-CB--CG-[CD1] |==|  0.89883
USER: genes 7 Torsion [N]-C--CA-[N] |==|  0.28985
USER: genes 8 Torsion [C]-CA--CB-[CG] |==|  0.27718
USER: genes 9 Torsion [CA]-CB--CG-[CD1] |==|  0.36211
USER: genes 10 Torsion [C]-CA--N-[H2] |==|  0.88608
ROOT
ATOM      1  C   TRP D   1      14.459 -12.053  38.730  1.00 35.88 LIG 0.25  C 
ATOM      2 O    TRP D   1      13.494 -11.814  39.542  1.00 38.57 LIG-0.27  OA
ATOM      3  N   PRO D   2      14.980 -11.294  37.847  1.00 34.89 LIG-0.34  N 
ATOM      4  CA  PRO D   2      14.659  -9.845  37.634  1.00 35.03 LIG 0.18  C 
ATOM      5  CB  PRO D   2      15.602  -9.514  36.511  1.00 35.34 LIG 0.04  C 
ATOM      6  CG  PRO D   2      16.824 -10.352  36.891  1.00 35.42 LIG 0.02  C 
ATOM      7  CD  PRO D   2      16.404 -11.543  37.686  1.00 35.14 LIG 0.13  C 
ENDROOT
BRANCH 4 8
ATOM      8  C   PRO D   2      13.236  -9.368  37.375  1.00 35.70 LIG 0.24  C 
ATOM      9 O    PRO D   2      12.282  -9.624  38.095  1.00 34.88 LIG-0.27  OA
ATOM     10  N   TRP D   3      13.231  -8.632  36.243  1.00 36.87 LIG-0.34  N 
ATOM     11 H    TRP D   3      13.955  -8.326  35.893  1.00 36.87 LIG 0.16  HD
BRANCH 10 12
ATOM     12  CA  TRP D   3      12.002  -8.257  35.461  1.00 37.56 LIG 0.19  C 
BRANCH 12 13
ATOM     13  C   TRP D   3      10.752  -9.193  35.266  1.00 38.92 LIG 0.20  C 
ATOM     14 OXT  TRP D   3      10.115  -9.691  36.254  1.00 41.38 LIG-0.65  OA
ATOM     15 O    TRP D   3      10.415  -9.466  34.013  1.00 40.06 LIG-0.65  OA
ENDBRANCH 12 13
BRANCH 12 16
ATOM     16  CB  TRP D   3      12.425  -7.684  34.057  1.00 36.55 LIG 0.08  C 
BRANCH 16 17
ATOM     17  CG  TRP D   3      13.036  -6.278  34.178  1.00 35.48 LIG-0.03  A 
ATOM     18  CD1 TRP D   3      12.646  -5.269  35.065  1.00 37.13 LIG 0.10  A 
ATOM     19  NE1 TRP D   3      13.422  -4.143  34.865  1.00 40.71 LIG-0.36  N 
ATOM     20 HE1  TRP D   3      13.345  -3.405  35.300  1.00 40.71 LIG 0.17  HD
ATOM     21  CE2 TRP D   3      14.339  -4.380  33.863  1.00 36.12 LIG 0.04  A 
ATOM     22  CD2 TRP D   3      14.124  -5.734  33.395  1.00 33.28 LIG-0.00  A 
ATOM     23  CZ2 TRP D   3      15.319  -3.511  33.318  1.00 34.49 LIG 0.03  A 
ATOM     24  CE3 TRP D   3      14.914  -6.237  32.330  1.00 31.46 LIG 0.01  A 
ATOM     25  CZ3 TRP D   3      15.909  -5.405  31.781  1.00 32.66 LIG 0.00  A 
ATOM     26  CH2 TRP D   3      16.102  -4.026  32.280  1.00 36.62 LIG 0.00  A 
ENDBRANCH 16 17
ENDBRANCH 12 16
ENDBRANCH 10 12
ENDBRANCH 4 8
BRANCH 1 27
ATOM     27  CA  TRP D   1      14.998 -13.508  38.571  1.00 34.78 LIG 0.28  C 
BRANCH 27 28
ATOM     28  CB  TRP D   1      13.868 -14.544  38.630  1.00 34.63 LIG 0.08  C 
BRANCH 28 29
ATOM     29  CG  TRP D   1      13.440 -15.024  37.211  1.00 37.87 LIG-0.03  A 
ATOM     30  CD1 TRP D   1      13.288 -16.338  36.773  1.00 40.68 LIG 0.10  A 
ATOM     31  NE1 TRP D   1      12.849 -16.348  35.464  1.00 42.18 LIG-0.36  N 
ATOM     32 HE1  TRP D   1      12.691 -17.052  34.996  1.00 42.18 LIG 0.17  HD
ATOM     33  CE2 TRP D   1      12.703 -15.040  35.026  1.00 41.11 LIG 0.04  A 
ATOM     34  CD2 TRP D   1      13.070 -14.186  36.093  1.00 38.74 LIG-0.00  A 
ATOM     35  CZ2 TRP D   1      12.271 -14.539  33.760  1.00 41.13 LIG 0.03  A 
ATOM     36  CE3 TRP D   1      12.972 -12.792  35.904  1.00 40.52 LIG 0.01  A 
ATOM     37  CZ3 TRP D   1      12.550 -12.295  34.644  1.00 41.02 LIG 0.00  A 
ATOM     38  CH2 TRP D   1      12.198 -13.174  33.598  1.00 39.74 LIG 0.00  A 
ENDBRANCH 28 29
ENDBRANCH 27 28
BRANCH 27 39
ATOM     39  N   TRP D   1      16.018 -13.843  39.631  1.00 33.45 LIG-0.07  N 
ATOM     40 H3   TRP D   1      15.601 -14.039  40.393  1.00 33.45 LIG 0.28  HD
ATOM     41 H2   TRP D   1      16.555 -13.145  39.759  1.00 33.45 LIG 0.28  HD
ATOM     42 H1   TRP D   1      16.500 -14.544  39.369  1.00 33.45 LIG 0.28  HD
ENDBRANCH 27 39
ENDBRANCH 1 27
TORSDOF 9
ENDMDL
MODEL 47
USER: ADFR SOLUTION from run 17
USER: SCORE 8.833380 LL:  -3.673 LR:  -5.161 RR:   0.000 FEB:  -2.476
USER: RMSD 4.027562
USER: SEED 16
USER: STATUS no improvement in best 27 clusters for 5 generations
USER: GENES 11
USER: genes 0 Translation |==|  0.55332 0.45451 0.63619
USER: genes 1 Rotation |==|  0.41111 0.56033 0.46813 0.98728
USER: genes 2 Torsion [N]-CA--C-[O] |==|  0.99241
USER: genes 3 Torsion [C]-N--CA-[CB] |==|  0.82976
USER: genes 4 Torsion [N]-CA--C-[OXT] |==|  0.18017
USER: genes 5 Torsion [N]-CA--CB-[CG] |==|  0.73453
USER: genes 6 Torsion [CA]-CB--CG-[CD1] |==|  0.78693
USER: genes 7 Torsion [N]-C--CA-[N] |==|  0.42774
USER: genes 8 Torsion [C]-CA--CB-[CG] |==|  0.07050
USER: genes 9 Torsion [CA]-CB--CG-[CD1] |==|  0.72488
USER: genes 10 Torsion [C]-CA--N-[H2] |==|  0.70957
ROOT
ATOM      1  C   TRP D   1      14.499 -12.185  38.926  1.00 35.88 LIG 0.25  C 
ATOM      2 O    TRP D   1      13.430 -11.962  39.601  1.00 38.57 LIG-0.27  OA
ATOM      3  N   PRO D   2      15.217 -11.372  38.255  1.00 34.89 LIG-0.34  N 
ATOM      4  CA  PRO D   2      15.045  -9.883  38.204  1.00 35.03 LIG 0.18  C 
ATOM      5  CB  PRO D   2      16.186  -9.501  37.305  1.00 35.34 LIG 0.04  C 
ATOM      6  CG  PRO D   2      17.261 -10.496  37.749  1.00 35.42 LIG 0.02  C 
ATOM      7  CD  PRO D   2      16.625 -11.734  38.287  1.00 35.14 LIG 0.13  C 
ENDROOT
BRANCH 4 8
ATOM      8  C   PRO D   2      13.725  -9.241  37.794  1.00 35.70 LIG 0.24  C 
ATOM      9 O    PRO D   2      12.738  -9.866  37.435  1.00 34.88 LIG-0.27  OA
ATOM     10  N   TRP D   3      13.849  -7.902  37.905  1.00 36.87 LIG-0.34  N 
ATOM     11 H    TRP D   3      14.491  -7.536  38.344  1.00 36.87 LIG 0.16  HD
BRANCH 10 12
ATOM     12  CA  TRP D   3      12.913  -6.894  37.295  1.00 37.56 LIG 0.19  C 
BRANCH 12 13
ATOM     13  C   TRP D   3      11.431  -6.655  37.770  1.00 38.92 LIG 0.20  C 
ATOM     14 OXT  TRP D   3      11.155  -6.203  38.930  1.00 41.38 LIG-0.65  OA
ATOM     15 O    TRP D   3      10.481  -6.984  36.906  1.00 40.06 LIG-0.65  OA
ENDBRANCH 12 13
BRANCH 12 16
ATOM     16  CB  TRP D   3      12.920  -7.048  35.728  1.00 36.55 LIG 0.08  C 
BRANCH 16 17
ATOM     17  CG  TRP D   3      13.898  -6.063  35.065  1.00 35.48 LIG-0.03  A 
ATOM     18  CD1 TRP D   3      13.695  -4.694  34.859  1.00 37.13 LIG 0.10  A 
ATOM     19  NE1 TRP D   3      14.793  -4.148  34.221  1.00 40.71 LIG-0.36  N 
ATOM     20 HE1  TRP D   3      14.874  -3.323  33.994  1.00 40.71 LIG 0.17  HD
ATOM     21  CE2 TRP D   3      15.739  -5.126  34.002  1.00 36.12 LIG 0.04  A 
ATOM     22  CD2 TRP D   3      15.205  -6.366  34.526  1.00 33.28 LIG-0.00  A 
ATOM     23  CZ2 TRP D   3      17.006  -5.025  33.371  1.00 34.49 LIG 0.03  A 
ATOM     24  CE3 TRP D   3      15.963  -7.559  34.402  1.00 31.46 LIG 0.01  A 
ATOM     25  CZ3 TRP D   3      17.233  -7.488  33.798  1.00 32.66 LIG 0.00  A 
ATOM     26  CH2 TRP D   3      17.749  -6.206  33.271  1.00 36.62 LIG 0.00  A 
ENDBRANCH 16 17
ENDBRANCH 12 16
ENDBRANCH 10 12
ENDBRANCH 4 8
BRANCH 1 27
ATOM     27  CA  TRP D   1      14.949 -13.652  38.646  1.00 34.78 LIG 0.28  C 
BRANCH 27 28
ATOM     28  CB  TRP D   1      14.299 -14.215  37.375  1.00 34.63 LIG 0.08  C 
BRANCH 28 29
ATOM     29  CG  TRP D   1      13.902 -13.088  36.375  1.00 37.87 LIG-0.03  A 
ATOM     30  CD1 TRP D   1      12.639 -12.525  36.194  1.00 40.68 LIG 0.10  A 
ATOM     31  NE1 TRP D   1      12.705 -11.521  35.248  1.00 42.18 LIG-0.36  N 
ATOM     32 HE1  TRP D   1      12.042 -11.043  34.982  1.00 42.18 LIG 0.17  HD
ATOM     33  CE2 TRP D   1      14.012 -11.409  34.799  1.00 41.11 LIG 0.04  A 
ATOM     34  CD2 TRP D   1      14.786 -12.378  35.479  1.00 38.74 LIG-0.00  A 
ATOM     35  CZ2 TRP D   1      14.578 -10.518  33.836  1.00 41.13 LIG 0.03  A 
ATOM     36  CE3 TRP D   1      16.171 -12.441  35.216  1.00 40.52 LIG 0.01  A 
ATOM     37  CZ3 TRP D   1      16.731 -11.561  34.256  1.00 41.02 LIG 0.00  A 
ATOM     38  CH2 TRP D   1      15.929 -10.609  33.589  1.00 39.74 LIG 0.00  A 
ENDBRANCH 28 29
ENDBRANCH 27 28
BRANCH 27 39
ATOM     39  N   TRP D   1      14.621 -14.565  39.802  1.00 33.45 LIG-0.07  N 
ATOM     40 H3   TRP D   1      14.036 -14.164  40.340  1.00 33.45 LIG 0.28  HD
ATOM     41 H2   TRP D   1      15.364 -14.749  40.256  1.00 33.45 LIG 0.28  HD
ATOM     42 H1   TRP D   1      14.269 -15.321  39.492  1.00 33.45 LIG 0.28  HD
ENDBRANCH 27 39
ENDBRANCH 1 27
TORSDOF 9
ENDMDL
MODEL 48
USER: ADFR SOLUTION from run 84
USER: SCORE 8.496738 LL:  -3.332 LR:  -5.165 RR:   0.000 FEB:  -2.480
USER: RMSD 3.445269
USER: SEED 83
USER: STATUS no improvement in best 11 clusters for 5 generations
USER: GENES 11
USER: genes 0 Translation |==|  0.49814 0.46949 0.58350
USER: genes 1 Rotation |==|  0.51503 0.38545 0.56788 0.98171
USER: genes 2 Torsion [N]-CA--C-[O] |==|  0.16688
USER: genes 3 Torsion [C]-N--CA-[CB] |==|  0.73115
USER: genes 4 Torsion [N]-CA--C-[OXT] |==|  0.59293
USER: genes 5 Torsion [N]-CA--CB-[CG] |==|  0.75422
USER: genes 6 Torsion [CA]-CB--CG-[CD1] |==|  0.79191
USER: genes 7 Torsion [N]-C--CA-[N] |==|  0.44960
USER: genes 8 Torsion [C]-CA--CB-[CG] |==|  0.95482
USER: genes 9 Torsion [CA]-CB--CG-[CD1] |==|  0.29381
USER: genes 10 Torsion [C]-CA--N-[H2] |==|  0.68310
ROOT
ATOM      1  C   TRP D   1      12.844 -11.735  37.345  1.00 35.88 LIG 0.25  C 
ATOM      2 O    TRP D   1      11.662 -12.204  37.169  1.00 38.57 LIG-0.27  OA
ATOM      3  N   PRO D   2      13.220 -10.529  37.516  1.00 34.89 LIG-0.34  N 
ATOM      4  CA  PRO D   2      12.316  -9.344  37.688  1.00 35.03 LIG 0.18  C 
ATOM      5  CB  PRO D   2      13.327  -8.249  37.883  1.00 35.34 LIG 0.04  C 
ATOM      6  CG  PRO D   2      14.400  -8.976  38.698  1.00 35.42 LIG 0.02  C 
ATOM      7  CD  PRO D   2      14.375 -10.436  38.394  1.00 35.14 LIG 0.13  C 
ENDROOT
BRANCH 4 8
ATOM      8  C   PRO D   2      11.250  -8.991  36.659  1.00 35.70 LIG 0.24  C 
ATOM      9 O    PRO D   2      10.329  -9.730  36.341  1.00 34.88 LIG-0.27  OA
ATOM     10  N   TRP D   3      11.504  -7.753  36.187  1.00 36.87 LIG-0.34  N 
ATOM     11 H    TRP D   3      12.042  -7.213  36.586  1.00 36.87 LIG 0.16  HD
BRANCH 10 12
ATOM     12  CA  TRP D   3      10.904  -7.162  34.940  1.00 37.56 LIG 0.19  C 
BRANCH 12 13
ATOM     13  C   TRP D   3       9.446  -7.461  34.427  1.00 38.92 LIG 0.20  C 
ATOM     14 OXT  TRP D   3       9.158  -7.505  33.185  1.00 41.38 LIG-0.65  OA
ATOM     15 O    TRP D   3       8.522  -7.633  35.362  1.00 40.06 LIG-0.65  OA
ENDBRANCH 12 13
BRANCH 12 16
ATOM     16  CB  TRP D   3      11.905  -7.339  33.738  1.00 36.55 LIG 0.08  C 
BRANCH 16 17
ATOM     17  CG  TRP D   3      12.887  -6.159  33.638  1.00 35.48 LIG-0.03  A 
ATOM     18  CD1 TRP D   3      12.605  -4.873  33.164  1.00 37.13 LIG 0.10  A 
ATOM     19  NE1 TRP D   3      13.744  -4.094  33.215  1.00 40.71 LIG-0.36  N 
ATOM     20 HE1  TRP D   3      13.794  -3.272  32.965  1.00 40.71 LIG 0.17  HD
ATOM     21  CE2 TRP D   3      14.791  -4.830  33.729  1.00 36.12 LIG 0.04  A 
ATOM     22  CD2 TRP D   3      14.284  -6.158  34.011  1.00 33.28 LIG-0.00  A 
ATOM     23  CZ2 TRP D   3      16.139  -4.445  33.946  1.00 34.49 LIG 0.03  A 
ATOM     24  CE3 TRP D   3      15.165  -7.146  34.520  1.00 31.46 LIG 0.01  A 
ATOM     25  CZ3 TRP D   3      16.505  -6.789  34.765  1.00 32.66 LIG 0.00  A 
ATOM     26  CH2 TRP D   3      16.991  -5.425  34.465  1.00 36.62 LIG 0.00  A 
ENDBRANCH 16 17
ENDBRANCH 12 16
ENDBRANCH 10 12
ENDBRANCH 4 8
BRANCH 1 27
ATOM     27  CA  TRP D   1      14.085 -12.655  37.125  1.00 34.78 LIG 0.28  C 
BRANCH 27 28
ATOM     28  CB  TRP D   1      14.664 -12.502  35.712  1.00 34.63 LIG 0.08  C 
BRANCH 28 29
ATOM     29  CG  TRP D   1      13.662 -11.804  34.743  1.00 37.87 LIG-0.03  A 
ATOM     30  CD1 TRP D   1      13.723 -10.497  34.262  1.00 40.68 LIG 0.10  A 
ATOM     31  NE1 TRP D   1      12.678 -10.271  33.388  1.00 42.18 LIG-0.36  N 
ATOM     32 HE1  TRP D   1      12.523  -9.532  32.977  1.00 42.18 LIG 0.17  HD
ATOM     33  CE2 TRP D   1      11.920 -11.427  33.282  1.00 41.11 LIG 0.04  A 
ATOM     34  CD2 TRP D   1      12.505 -12.405  34.121  1.00 38.74 LIG-0.00  A 
ATOM     35  CZ2 TRP D   1      10.752 -11.690  32.502  1.00 41.13 LIG 0.03  A 
ATOM     36  CE3 TRP D   1      11.929 -13.692  34.159  1.00 40.52 LIG 0.01  A 
ATOM     37  CZ3 TRP D   1      10.766 -13.950  33.390  1.00 41.02 LIG 0.00  A 
ATOM     38  CH2 TRP D   1      10.202 -12.949  32.567  1.00 39.74 LIG 0.00  A 
ENDBRANCH 28 29
ENDBRANCH 27 28
BRANCH 27 39
ATOM     39  N   TRP D   1      13.749 -14.108  37.355  1.00 33.45 LIG-0.07  N 
ATOM     40 H3   TRP D   1      12.874 -14.192  37.494  1.00 33.45 LIG 0.28  HD
ATOM     41 H2   TRP D   1      14.192 -14.407  38.067  1.00 33.45 LIG 0.28  HD
ATOM     42 H1   TRP D   1      13.982 -14.584  36.641  1.00 33.45 LIG 0.28  HD
ENDBRANCH 27 39
ENDBRANCH 1 27
TORSDOF 9
ENDMDL
MODEL 49
USER: ADFR SOLUTION from run 132
USER: SCORE 7.876213 LL:  -2.725 LR:  -5.151 RR:   0.000 FEB:  -2.466
USER: RMSD 4.122699
USER: SEED 131
USER: STATUS no improvement in best 28 clusters for 5 generations
USER: GENES 11
USER: genes 0 Translation |==|  0.45147 0.50574 0.56595
USER: genes 1 Rotation |==|  0.52788 0.31336 0.42315 0.95660
USER: genes 2 Torsion [N]-CA--C-[O] |==|  0.29151
USER: genes 3 Torsion [C]-N--CA-[CB] |==|  0.35588
USER: genes 4 Torsion [N]-CA--C-[OXT] |==|  0.98287
USER: genes 5 Torsion [N]-CA--CB-[CG] |==|  0.25486
USER: genes 6 Torsion [CA]-CB--CG-[CD1] |==|  0.81904
USER: genes 7 Torsion [N]-C--CA-[N] |==|  0.48268
USER: genes 8 Torsion [C]-CA--CB-[CG] |==|  0.71339
USER: genes 9 Torsion [CA]-CB--CG-[CD1] |==|  0.68469
USER: genes 10 Torsion [C]-CA--N-[H2] |==|  0.77435
ROOT
ATOM      1  C   TRP D   1      11.444 -10.648  36.818  1.00 35.88 LIG 0.25  C 
ATOM      2 O    TRP D   1      10.311 -10.370  36.281  1.00 38.57 LIG-0.27  OA
ATOM      3  N   PRO D   2      12.275  -9.875  37.400  1.00 34.89 LIG-0.34  N 
ATOM      4  CA  PRO D   2      12.053  -8.427  37.720  1.00 35.03 LIG 0.18  C 
ATOM      5  CB  PRO D   2      13.341  -8.096  38.419  1.00 35.34 LIG 0.04  C 
ATOM      6  CG  PRO D   2      13.603  -9.391  39.190  1.00 35.42 LIG 0.02  C 
ATOM      7  CD  PRO D   2      12.979 -10.546  38.481  1.00 35.14 LIG 0.13  C 
ENDROOT
BRANCH 4 8
ATOM      8  C   PRO D   2      11.684  -7.414  36.643  1.00 35.70 LIG 0.24  C 
ATOM      9 O    PRO D   2      10.565  -6.948  36.491  1.00 34.88 LIG-0.27  OA
ATOM     10  N   TRP D   3      12.790  -7.139  35.920  1.00 36.87 LIG-0.34  N 
ATOM     11 H    TRP D   3      13.579  -7.343  36.194  1.00 36.87 LIG 0.16  HD
BRANCH 10 12
ATOM     12  CA  TRP D   3      12.798  -6.458  34.578  1.00 37.56 LIG 0.19  C 
BRANCH 12 13
ATOM     13  C   TRP D   3      12.957  -7.206  33.202  1.00 38.92 LIG 0.20  C 
ATOM     14 OXT  TRP D   3      13.208  -8.456  33.134  1.00 41.38 LIG-0.65  OA
ATOM     15 O    TRP D   3      12.849  -6.457  32.113  1.00 40.06 LIG-0.65  OA
ENDBRANCH 12 13
BRANCH 12 16
ATOM     16  CB  TRP D   3      13.800  -5.244  34.609  1.00 36.55 LIG 0.08  C 
BRANCH 16 17
ATOM     17  CG  TRP D   3      15.208  -5.658  34.148  1.00 35.48 LIG-0.03  A 
ATOM     18  CD1 TRP D   3      16.070  -6.552  34.791  1.00 37.13 LIG 0.10  A 
ATOM     19  NE1 TRP D   3      17.252  -6.657  34.081  1.00 40.71 LIG-0.36  N 
ATOM     20 HE1  TRP D   3      17.921  -7.149  34.304  1.00 40.71 LIG 0.17  HD
ATOM     21  CE2 TRP D   3      17.196  -5.855  32.962  1.00 36.12 LIG 0.04  A 
ATOM     22  CD2 TRP D   3      15.906  -5.197  32.968  1.00 33.28 LIG-0.00  A 
ATOM     23  CZ2 TRP D   3      18.179  -5.640  31.962  1.00 34.49 LIG 0.03  A 
ATOM     24  CE3 TRP D   3      15.589  -4.274  31.938  1.00 31.46 LIG 0.01  A 
ATOM     25  CZ3 TRP D   3      16.537  -4.054  30.919  1.00 32.66 LIG 0.00  A 
ATOM     26  CH2 TRP D   3      17.846  -4.741  30.943  1.00 36.62 LIG 0.00  A 
ENDBRANCH 16 17
ENDBRANCH 12 16
ENDBRANCH 10 12
ENDBRANCH 4 8
BRANCH 1 27
ATOM     27  CA  TRP D   1      12.085 -12.053  36.597  1.00 34.78 LIG 0.28  C 
BRANCH 27 28
ATOM     28  CB  TRP D   1      13.285 -11.988  35.644  1.00 34.63 LIG 0.08  C 
BRANCH 28 29
ATOM     29  CG  TRP D   1      12.928 -12.507  34.219  1.00 37.87 LIG-0.03  A 
ATOM     30  CD1 TRP D   1      13.418 -13.650  33.588  1.00 40.68 LIG 0.10  A 
ATOM     31  NE1 TRP D   1      12.823 -13.792  32.350  1.00 42.18 LIG-0.36  N 
ATOM     32 HE1  TRP D   1      12.979 -14.427  31.791  1.00 42.18 LIG 0.17  HD
ATOM     33  CE2 TRP D   1      11.932 -12.747  32.154  1.00 41.11 LIG 0.04  A 
ATOM     34  CD2 TRP D   1      11.978 -11.922  33.302  1.00 38.74 LIG-0.00  A 
ATOM     35  CZ2 TRP D   1      11.081 -12.464  31.042  1.00 41.13 LIG 0.03  A 
ATOM     36  CE3 TRP D   1      11.126 -10.798  33.357  1.00 40.52 LIG 0.01  A 
ATOM     37  CZ3 TRP D   1      10.286 -10.514  32.251  1.00 41.02 LIG 0.00  A 
ATOM     38  CH2 TRP D   1      10.270 -11.355  31.117  1.00 39.74 LIG 0.00  A 
ENDBRANCH 28 29
ENDBRANCH 27 28
BRANCH 27 39
ATOM     39  N   TRP D   1      11.084 -13.041  36.049  1.00 33.45 LIG-0.07  N 
ATOM     40 H3   TRP D   1      10.559 -12.634  35.457  1.00 33.45 LIG 0.28  HD
ATOM     41 H2   TRP D   1      10.588 -13.362  36.715  1.00 33.45 LIG 0.28  HD
ATOM     42 H1   TRP D   1      11.515 -13.710  35.652  1.00 33.45 LIG 0.28  HD
ENDBRANCH 27 39
ENDBRANCH 1 27
TORSDOF 9
ENDMDL
MODEL 50
USER: ADFR SOLUTION from run 132
USER: SCORE 7.205993 LL:  -2.082 LR:  -5.124 RR:   0.000 FEB:  -2.439
USER: RMSD 3.718304
USER: SEED 131
USER: STATUS no improvement in best 28 clusters for 5 generations
USER: GENES 11
USER: genes 0 Translation |==|  0.45151 0.50571 0.56605
USER: genes 1 Rotation |==|  0.52816 0.31337 0.42437 0.95679
USER: genes 2 Torsion [N]-CA--C-[O] |==|  0.29101
USER: genes 3 Torsion [C]-N--CA-[CB] |==|  0.35571
USER: genes 4 Torsion [N]-CA--C-[OXT] |==|  0.00310
USER: genes 5 Torsion [N]-CA--CB-[CG] |==|  0.25448
USER: genes 6 Torsion [CA]-CB--CG-[CD1] |==|  0.81910
USER: genes 7 Torsion [N]-C--CA-[N] |==|  0.30790
USER: genes 8 Torsion [C]-CA--CB-[CG] |==|  0.73631
USER: genes 9 Torsion [CA]-CB--CG-[CD1] |==|  0.22476
USER: genes 10 Torsion [C]-CA--N-[H2] |==|  0.77436
ROOT
ATOM      1  C   TRP D   1      11.445 -10.649  36.822  1.00 35.88 LIG 0.25  C 
ATOM      2 O    TRP D   1      10.311 -10.377  36.284  1.00 38.57 LIG-0.27  OA
ATOM      3  N   PRO D   2      12.273  -9.872  37.403  1.00 34.89 LIG-0.34  N 
ATOM      4  CA  PRO D   2      12.043  -8.424  37.722  1.00 35.03 LIG 0.18  C 
ATOM      5  CB  PRO D   2      13.329  -8.086  38.421  1.00 35.34 LIG 0.04  C 
ATOM      6  CG  PRO D   2      13.598  -9.380  39.192  1.00 35.42 LIG 0.02  C 
ATOM      7  CD  PRO D   2      12.979 -10.538  38.485  1.00 35.14 LIG 0.13  C 
ENDROOT
BRANCH 4 8
ATOM      8  C   PRO D   2      11.670  -7.414  36.643  1.00 35.70 LIG 0.24  C 
ATOM      9 O    PRO D   2      10.547  -6.956  36.489  1.00 34.88 LIG-0.27  OA
ATOM     10  N   TRP D   3      12.775  -7.131  35.923  1.00 36.87 LIG-0.34  N 
ATOM     11 H    TRP D   3      13.565  -7.330  36.198  1.00 36.87 LIG 0.16  HD
BRANCH 10 12
ATOM     12  CA  TRP D   3      12.781  -6.450  34.580  1.00 37.56 LIG 0.19  C 
BRANCH 12 13
ATOM     13  C   TRP D   3      12.950  -7.197  33.205  1.00 38.92 LIG 0.20  C 
ATOM     14 OXT  TRP D   3      13.075  -8.465  33.133  1.00 41.38 LIG-0.65  OA
ATOM     15 O    TRP D   3      12.988  -6.430  32.124  1.00 40.06 LIG-0.65  OA
ENDBRANCH 12 13
BRANCH 12 16
ATOM     16  CB  TRP D   3      13.773  -5.228  34.614  1.00 36.55 LIG 0.08  C 
BRANCH 16 17
ATOM     17  CG  TRP D   3      15.186  -5.631  34.160  1.00 35.48 LIG-0.03  A 
ATOM     18  CD1 TRP D   3      16.052  -6.518  34.808  1.00 37.13 LIG 0.10  A 
ATOM     19  NE1 TRP D   3      17.238  -6.614  34.104  1.00 40.71 LIG-0.36  N 
ATOM     20 HE1  TRP D   3      17.910  -7.100  34.331  1.00 40.71 LIG 0.17  HD
ATOM     21  CE2 TRP D   3      17.181  -5.814  32.983  1.00 36.12 LIG 0.04  A 
ATOM     22  CD2 TRP D   3      15.886  -5.166  32.983  1.00 33.28 LIG-0.00  A 
ATOM     23  CZ2 TRP D   3      18.167  -5.592  31.988  1.00 34.49 LIG 0.03  A 
ATOM     24  CE3 TRP D   3      15.566  -4.247  31.950  1.00 31.46 LIG 0.01  A 
ATOM     25  CZ3 TRP D   3      16.517  -4.021  30.936  1.00 32.66 LIG 0.00  A 
ATOM     26  CH2 TRP D   3      17.832  -4.697  30.966  1.00 36.62 LIG 0.00  A 
ENDBRANCH 16 17
ENDBRANCH 12 16
ENDBRANCH 10 12
ENDBRANCH 4 8
BRANCH 1 27
ATOM     27  CA  TRP D   1      12.093 -12.051  36.602  1.00 34.78 LIG 0.28  C 
BRANCH 27 28
ATOM     28  CB  TRP D   1      11.997 -12.500  35.137  1.00 34.63 LIG 0.08  C 
BRANCH 28 29
ATOM     29  CG  TRP D   1      10.753 -13.404  34.885  1.00 37.87 LIG-0.03  A 
ATOM     30  CD1 TRP D   1       9.436 -12.994  34.683  1.00 40.68 LIG 0.10  A 
ATOM     31  NE1 TRP D   1       8.634 -14.092  34.445  1.00 42.18 LIG-0.36  N 
ATOM     32 HE1  TRP D   1       7.788 -14.069  34.297  1.00 42.18 LIG 0.17  HD
ATOM     33  CE2 TRP D   1       9.415 -15.238  34.482  1.00 41.11 LIG 0.04  A 
ATOM     34  CD2 TRP D   1      10.745 -14.843  34.761  1.00 38.74 LIG-0.00  A 
ATOM     35  CZ2 TRP D   1       9.047 -16.605  34.290  1.00 41.13 LIG 0.03  A 
ATOM     36  CE3 TRP D   1      11.744 -15.838  34.817  1.00 40.52 LIG 0.01  A 
ATOM     37  CZ3 TRP D   1      11.378 -17.195  34.632  1.00 41.02 LIG 0.00  A 
ATOM     38  CH2 TRP D   1      10.039 -17.556  34.363  1.00 39.74 LIG 0.00  A 
ENDBRANCH 28 29
ENDBRANCH 27 28
BRANCH 27 39
ATOM     39  N   TRP D   1      11.452 -13.103  37.473  1.00 33.45 LIG-0.07  N 
ATOM     40 H3   TRP D   1      10.574 -12.960  37.514  1.00 33.45 LIG 0.28  HD
ATOM     41 H2   TRP D   1      11.798 -13.061  38.293  1.00 33.45 LIG 0.28  HD
ATOM     42 H1   TRP D   1      11.605 -13.909  37.128  1.00 33.45 LIG 0.28  HD
ENDBRANCH 27 39
ENDBRANCH 1 27
TORSDOF 9
ENDMDL
MODEL 51
USER: ADFR SOLUTION from run 74
USER: SCORE 7.915447 LL:  -2.797 LR:  -5.118 RR:   0.000 FEB:  -2.433
USER: RMSD 3.546181
USER: SEED 73
USER: STATUS no improvement in best 11 clusters for 5 generations
USER: GENES 11
USER: genes 0 Translation |==|  0.48607 0.47728 0.59539
USER: genes 1 Rotation |==|  0.46673 0.21234 0.46012 0.90566
USER: genes 2 Torsion [N]-CA--C-[O] |==|  0.46505
USER: genes 3 Torsion [C]-N--CA-[CB] |==|  0.35636
USER: genes 4 Torsion [N]-CA--C-[OXT] |==|  0.94260
USER: genes 5 Torsion [N]-CA--CB-[CG] |==|  0.79160
USER: genes 6 Torsion [CA]-CB--CG-[CD1] |==|  0.37473
USER: genes 7 Torsion [N]-C--CA-[N] |==|  0.47976
USER: genes 8 Torsion [C]-CA--CB-[CG] |==|  0.63881
USER: genes 9 Torsion [CA]-CB--CG-[CD1] |==|  0.77940
USER: genes 10 Torsion [C]-CA--N-[H2] |==|  0.52035
ROOT
ATOM      1  C   TRP D   1      12.482 -11.502  37.702  1.00 35.88 LIG 0.25  C 
ATOM      2 O    TRP D   1      11.684 -11.477  36.697  1.00 38.57 LIG-0.27  OA
ATOM      3  N   PRO D   2      13.070 -10.536  38.293  1.00 34.89 LIG-0.34  N 
ATOM      4  CA  PRO D   2      12.852  -9.077  38.021  1.00 35.03 LIG 0.18  C 
ATOM      5  CB  PRO D   2      13.776  -8.465  39.036  1.00 35.34 LIG 0.04  C 
ATOM      6  CG  PRO D   2      13.606  -9.429  40.213  1.00 35.42 LIG 0.02  C 
ATOM      7  CD  PRO D   2      13.228 -10.784  39.717  1.00 35.14 LIG 0.13  C 
ENDROOT
BRANCH 4 8
ATOM      8  C   PRO D   2      13.025  -8.486  36.628  1.00 35.70 LIG 0.24  C 
ATOM      9 O    PRO D   2      12.653  -7.367  36.304  1.00 34.88 LIG-0.27  OA
ATOM     10  N   TRP D   3      13.647  -9.397  35.851  1.00 36.87 LIG-0.34  N 
ATOM     11 H    TRP D   3      14.054 -10.078  36.181  1.00 36.87 LIG 0.16  HD
BRANCH 10 12
ATOM     12  CA  TRP D   3      13.713  -9.352  34.348  1.00 37.56 LIG 0.19  C 
BRANCH 12 13
ATOM     13  C   TRP D   3      12.804 -10.211  33.392  1.00 38.92 LIG 0.20  C 
ATOM     14 OXT  TRP D   3      12.219 -11.274  33.786  1.00 41.38 LIG-0.65  OA
ATOM     15 O    TRP D   3      12.706  -9.785  32.140  1.00 40.06 LIG-0.65  OA
ENDBRANCH 12 13
BRANCH 12 16
ATOM     16  CB  TRP D   3      15.209  -9.495  33.882  1.00 36.55 LIG 0.08  C 
BRANCH 16 17
ATOM     17  CG  TRP D   3      16.003  -8.198  34.114  1.00 35.48 LIG-0.03  A 
ATOM     18  CD1 TRP D   3      17.284  -8.088  34.665  1.00 37.13 LIG 0.10  A 
ATOM     19  NE1 TRP D   3      17.657  -6.759  34.725  1.00 40.71 LIG-0.36  N 
ATOM     20 HE1  TRP D   3      18.404  -6.468  35.036  1.00 40.71 LIG 0.17  HD
ATOM     21  CE2 TRP D   3      16.651  -5.969  34.211  1.00 36.12 LIG 0.04  A 
ATOM     22  CD2 TRP D   3      15.574  -6.851  33.810  1.00 33.28 LIG-0.00  A 
ATOM     23  CZ2 TRP D   3      16.593  -4.557  34.087  1.00 34.49 LIG 0.03  A 
ATOM     24  CE3 TRP D   3      14.383  -6.297  33.274  1.00 31.46 LIG 0.01  A 
ATOM     25  CZ3 TRP D   3      14.302  -4.900  33.120  1.00 32.66 LIG 0.00  A 
ATOM     26  CH2 TRP D   3      15.419  -4.027  33.541  1.00 36.62 LIG 0.00  A 
ENDBRANCH 16 17
ENDBRANCH 12 16
ENDBRANCH 10 12
ENDBRANCH 4 8
BRANCH 1 27
ATOM     27  CA  TRP D   1      13.046 -12.864  38.213  1.00 34.78 LIG 0.28  C 
BRANCH 27 28
ATOM     28  CB  TRP D   1      14.521 -13.048  37.834  1.00 34.63 LIG 0.08  C 
BRANCH 28 29
ATOM     29  CG  TRP D   1      14.783 -14.429  37.161  1.00 37.87 LIG-0.03  A 
ATOM     30  CD1 TRP D   1      14.924 -15.664  37.792  1.00 40.68 LIG 0.10  A 
ATOM     31  NE1 TRP D   1      15.097 -16.655  36.847  1.00 42.18 LIG-0.36  N 
ATOM     32 HE1  TRP D   1      15.205 -17.492  37.015  1.00 42.18 LIG 0.17  HD
ATOM     33  CE2 TRP D   1      15.068 -16.085  35.583  1.00 41.11 LIG 0.04  A 
ATOM     34  CD2 TRP D   1      14.878 -14.692  35.744  1.00 38.74 LIG-0.00  A 
ATOM     35  CZ2 TRP D   1      15.194 -16.696  34.298  1.00 41.13 LIG 0.03  A 
ATOM     36  CE3 TRP D   1      14.780 -13.888  34.588  1.00 40.52 LIG 0.01  A 
ATOM     37  CZ3 TRP D   1      14.912 -14.494  33.313  1.00 41.02 LIG 0.00  A 
ATOM     38  CH2 TRP D   1      15.107 -15.887  33.188  1.00 39.74 LIG 0.00  A 
ENDBRANCH 28 29
ENDBRANCH 27 28
BRANCH 27 39
ATOM     39  N   TRP D   1      12.258 -14.031  37.671  1.00 33.45 LIG-0.07  N 
ATOM     40 H3   TRP D   1      11.392 -13.908  37.840  1.00 33.45 LIG 0.28  HD
ATOM     41 H2   TRP D   1      12.533 -14.782  38.060  1.00 33.45 LIG 0.28  HD
ATOM     42 H1   TRP D   1      12.382 -14.090  36.792  1.00 33.45 LIG 0.28  HD
ENDBRANCH 27 39
ENDBRANCH 1 27
TORSDOF 9
ENDMDL
MODEL 52
USER: ADFR SOLUTION from run 17
USER: SCORE 7.447658 LL:  -2.341 LR:  -5.107 RR:   0.000 FEB:  -2.422
USER: RMSD 3.567284
USER: SEED 16
USER: STATUS no improvement in best 27 clusters for 5 generations
USER: GENES 11
USER: genes 0 Translation |==|  0.55349 0.45435 0.63670
USER: genes 1 Rotation |==|  0.40162 0.55800 0.46757 0.98570
USER: genes 2 Torsion [N]-CA--C-[O] |==|  0.98976
USER: genes 3 Torsion [C]-N--CA-[CB] |==|  0.82825
USER: genes 4 Torsion [N]-CA--C-[OXT] |==|  0.18017
USER: genes 5 Torsion [N]-CA--CB-[CG] |==|  0.73531
USER: genes 6 Torsion [CA]-CB--CG-[CD1] |==|  0.78643
USER: genes 7 Torsion [N]-C--CA-[N] |==|  0.42643
USER: genes 8 Torsion [C]-CA--CB-[CG] |==|  0.46571
USER: genes 9 Torsion [CA]-CB--CG-[CD1] |==|  0.36276
USER: genes 10 Torsion [C]-CA--N-[H2] |==|  0.75576
ROOT
ATOM      1  C   TRP D   1      14.505 -12.190  38.941  1.00 35.88 LIG 0.25  C 
ATOM      2 O    TRP D   1      13.431 -11.944  39.600  1.00 38.57 LIG-0.27  OA
ATOM      3  N   PRO D   2      15.224 -11.401  38.243  1.00 34.89 LIG-0.34  N 
ATOM      4  CA  PRO D   2      15.047  -9.916  38.134  1.00 35.03 LIG 0.18  C 
ATOM      5  CB  PRO D   2      16.192  -9.565  37.227  1.00 35.34 LIG 0.04  C 
ATOM      6  CG  PRO D   2      17.268 -10.537  37.716  1.00 35.42 LIG 0.02  C 
ATOM      7  CD  PRO D   2      16.633 -11.756  38.299  1.00 35.14 LIG 0.13  C 
ENDROOT
BRANCH 4 8
ATOM      8  C   PRO D   2      13.727  -9.295  37.691  1.00 35.70 LIG 0.24  C 
ATOM      9 O    PRO D   2      12.751  -9.937  37.334  1.00 34.88 LIG-0.27  OA
ATOM     10  N   TRP D   3      13.839  -7.953  37.770  1.00 36.87 LIG-0.34  N 
ATOM     11 H    TRP D   3      14.472  -7.571  38.209  1.00 36.87 LIG 0.16  HD
BRANCH 10 12
ATOM     12  CA  TRP D   3      12.903  -6.968  37.123  1.00 37.56 LIG 0.19  C 
BRANCH 12 13
ATOM     13  C   TRP D   3      11.409  -6.739  37.565  1.00 38.92 LIG 0.20  C 
ATOM     14 OXT  TRP D   3      11.104  -6.269  38.711  1.00 41.38 LIG-0.65  OA
ATOM     15 O    TRP D   3      10.480  -7.095  36.689  1.00 40.06 LIG-0.65  OA
ENDBRANCH 12 13
BRANCH 12 16
ATOM     16  CB  TRP D   3      12.943  -7.151  35.560  1.00 36.55 LIG 0.08  C 
BRANCH 16 17
ATOM     17  CG  TRP D   3      13.926  -6.171  34.898  1.00 35.48 LIG-0.03  A 
ATOM     18  CD1 TRP D   3      13.716  -4.808  34.660  1.00 37.13 LIG 0.10  A 
ATOM     19  NE1 TRP D   3      14.823  -4.266  34.034  1.00 40.71 LIG-0.36  N 
ATOM     20 HE1  TRP D   3      14.902  -3.445  33.792  1.00 40.71 LIG 0.17  HD
ATOM     21  CE2 TRP D   3      15.783  -5.240  33.857  1.00 36.12 LIG 0.04  A 
ATOM     22  CD2 TRP D   3      15.248  -6.474  34.395  1.00 33.28 LIG-0.00  A 
ATOM     23  CZ2 TRP D   3      17.062  -5.141  33.252  1.00 34.49 LIG 0.03  A 
ATOM     24  CE3 TRP D   3      16.018  -7.662  34.312  1.00 31.46 LIG 0.01  A 
ATOM     25  CZ3 TRP D   3      17.300  -7.592  33.734  1.00 32.66 LIG 0.00  A 
ATOM     26  CH2 TRP D   3      17.817  -6.316  33.193  1.00 36.62 LIG 0.00  A 
ENDBRANCH 16 17
ENDBRANCH 12 16
ENDBRANCH 10 12
ENDBRANCH 4 8
BRANCH 1 27
ATOM     27  CA  TRP D   1      14.962 -13.665  38.721  1.00 34.78 LIG 0.28  C 
BRANCH 27 28
ATOM     28  CB  TRP D   1      14.313 -14.283  37.476  1.00 34.63 LIG 0.08  C 
BRANCH 28 29
ATOM     29  CG  TRP D   1      14.986 -15.629  37.073  1.00 37.87 LIG-0.03  A 
ATOM     30  CD1 TRP D   1      14.354 -16.839  36.788  1.00 40.68 LIG 0.10  A 
ATOM     31  NE1 TRP D   1      15.293 -17.784  36.426  1.00 42.18 LIG-0.36  N 
ATOM     32 HE1  TRP D   1      15.123 -18.599  36.211  1.00 42.18 LIG 0.17  HD
ATOM     33  CE2 TRP D   1      16.553 -17.207  36.464  1.00 41.11 LIG 0.04  A 
ATOM     34  CD2 TRP D   1      16.398 -15.860  36.871  1.00 38.74 LIG-0.00  A 
ATOM     35  CZ2 TRP D   1      17.831 -17.773  36.168  1.00 41.13 LIG 0.03  A 
ATOM     36  CE3 TRP D   1      17.546 -15.045  36.954  1.00 40.52 LIG 0.01  A 
ATOM     37  CZ3 TRP D   1      18.815 -15.609  36.666  1.00 41.02 LIG 0.00  A 
ATOM     38  CH2 TRP D   1      18.936 -16.959  36.270  1.00 39.74 LIG 0.00  A 
ENDBRANCH 28 29
ENDBRANCH 27 28
BRANCH 27 39
ATOM     39  N   TRP D   1      14.639 -14.531  39.914  1.00 33.45 LIG-0.07  N 
ATOM     40 H3   TRP D   1      13.894 -14.237  40.302  1.00 33.45 LIG 0.28  HD
ATOM     41 H2   TRP D   1      15.311 -14.496  40.498  1.00 33.45 LIG 0.28  HD
ATOM     42 H1   TRP D   1      14.522 -15.372  39.648  1.00 33.45 LIG 0.28  HD
ENDBRANCH 27 39
ENDBRANCH 1 27
TORSDOF 9
ENDMDL
