MODEL 1
USER: ADFR SOLUTION from run 108
USER: SCORE 8.147758 LL:  -1.403 LR:  -6.745 RR:   0.000 FEB:  -5.850
USER: RMSD 0.957466
USER: SEED 107
USER: STATUS 1 or 2 clusters left
USER: GENES 5
USER: genes 0 Translation |==|  0.46648 0.48797 0.51633
USER: genes 1 Rotation |==|  0.55001 0.51054 0.48270 0.99708
USER: genes 2 Torsion [N]-C--CA-[N] |==|  0.43593
USER: genes 3 Torsion [C]-CA--N-[H1] |==|  0.70980
USER: genes 4 Torsion [N]-CA--C-[O] |==|  0.45107
ROOT
ATOM      1  C   ALA A 201      18.584  11.609   4.450  1.00 26.07 LIG 0.25  C 
ATOM      2 O    ALA A 201      17.553  11.370   5.111  1.00 22.86 LIG-0.27  OA
ATOM      3  N   PRO A 202      19.271  12.757   4.602  1.00 25.00 LIG-0.34  N 
ATOM      4  CA  PRO A 202      20.503  13.091   3.881  1.00 23.99 LIG 0.19  C 
ATOM      5  CB  PRO A 202      20.545  14.591   4.017  1.00 24.00 LIG 0.04  C 
ATOM      6  CG  PRO A 202      19.991  14.824   5.393  1.00 23.51 LIG 0.02  C 
ATOM      7  CD  PRO A 202      18.840  13.845   5.460  1.00 22.64 LIG 0.13  C 
ENDROOT
BRANCH 1 8
ATOM      8  CA  ALA A 201      19.019  10.585   3.405  1.00 25.54 LIG 0.27  C 
ATOM      9  CB  ALA A 201      18.402  10.972   2.081  1.00 24.99 LIG 0.05  C 
BRANCH 8 10
ATOM     10  N   ALA A 201      18.465   9.347   3.887  1.00 26.99 LIG-0.07  N 
ATOM     11 H1   ALA A 201      19.112   8.850   4.241  1.00 26.99 LIG 0.28  HD
ATOM     12 H2   ALA A 201      17.849   9.518   4.506  1.00 26.99 LIG 0.28  HD
ATOM     13 H3   ALA A 201      18.090   8.906   3.210  1.00 26.99 LIG 0.28  HD
ENDBRANCH 8 10
ENDBRANCH 1 8
BRANCH 4 14
ATOM     14  C   PRO A 202      21.777  12.370   4.331  1.00 25.43 LIG 0.20  C 
ATOM     15 O    PRO A 202      22.756  12.345   3.593  1.00 26.00 LIG-0.65  OA
ATOM     16 OXT  PRO A 202      21.840  11.905   5.460  1.00 26.17 LIG-0.65  OA
ENDBRANCH 4 14
TORSDOF 3
ENDMDL
