MODEL 1
USER: ADFR SOLUTION from run 39
USER: SCORE 20.607352 LL:  -2.953 LR: -21.212 RR:   0.000 FEB: -14.052
USER: RMSD 1.551156
USER: SEED 38
USER: STATUS 1 or 2 clusters left
USER: GENES 26
USER: genes 0 Translation |==|  0.45198 0.50647 0.48399
USER: genes 1 Rotation |==|  0.47764 0.47926 0.53236 0.99802
USER: genes 2 Torsion [C]-CA--CB-[CG] |==|  0.56190
USER: genes 3 Torsion [CA]-CB--CG-[CD] |==|  0.54272
USER: genes 4 Torsion [CB]-CG--CD-[CE] |==|  0.24752
USER: genes 5 Torsion [CG]-CD--CE-[NZ] |==|  0.74355
USER: genes 6 Torsion [CD]-CE--NZ-[HZ3] |==|  0.13473
USER: genes 7 Torsion [N]-CA--C-[N] |==|  0.48517
USER: genes 8 Torsion [C]-N--CA-[CB] |==|  0.38639
USER: genes 9 Torsion [N]-CA--CB-[CG2] |==|  0.74360
USER: genes 10 Torsion [CA]-CB--OG1-[HG1] |==|  0.48664
USER: genes 11 Torsion [N]-CA--C-[N] |==|  0.36831
USER: genes 12 Torsion [C]-N--CA-[CB] |==|  0.28612
USER: genes 13 Torsion [N]-CA--C-[O] |==|  0.38667
USER: genes 14 Torsion [N]-CA--CB-[CG] |==|  0.69628
USER: genes 15 Torsion [CA]-CB--CG-[CD] |==|  0.63014
USER: genes 16 Torsion [CB]-CG--CD-[CE] |==|  0.77275
USER: genes 17 Torsion [CG]-CD--CE-[NZ] |==|  0.54017
USER: genes 18 Torsion [CD]-CE--NZ-[HZ1] |==|  0.35508
USER: genes 19 Torsion [CB]-CA--N-[C] |==|  0.33568
USER: genes 20 Torsion [N]-C--CA-[N] |==|  0.41205
USER: genes 21 Torsion [C]-CA--N-[C] |==|  0.59461
USER: genes 22 Torsion [N]-C--CA-[N] |==|  0.46306
USER: genes 23 Torsion [C]-CA--N-[H2] |==|  0.97859
USER: genes 24 Torsion [C]-CA--CB-[OG] |==|  0.55009
USER: genes 25 Torsion [CA]-CB--OG-[HG] |==|  0.74579
ROOT
ATOM      1  CA  LYS D   3     -23.531  21.194  18.890  1.00 12.74 LIG 0.18  C 
ENDROOT
BRANCH 1 2
ATOM      2  CB  LYS D   3     -23.524  20.545  20.267  1.00 13.63 LIG 0.04  C 
BRANCH 2 3
ATOM      3  CG  LYS D   3     -24.397  19.304  20.378  1.00 18.86 LIG 0.00  C 
BRANCH 3 4
ATOM      4  CD  LYS D   3     -24.616  18.972  21.836  1.00 22.56 LIG 0.03  C 
BRANCH 4 5
ATOM      5  CE  LYS D   3     -25.844  19.692  22.367  1.00 24.97 LIG 0.23  C 
BRANCH 5 6
ATOM      6  NZ  LYS D   3     -25.480  20.998  22.968  1.00 28.16 LIG-0.08  N 
ATOM      7 HZ3  LYS D   3     -24.951  21.445  22.409  1.00 28.16 LIG 0.27  HD
ATOM      8 HZ2  LYS D   3     -25.052  20.863  23.737  1.00 28.16 LIG 0.27  HD
ATOM      9 HZ1  LYS D   3     -26.219  21.471  23.120  1.00 28.16 LIG 0.27  HD
ENDBRANCH 5 6
ENDBRANCH 4 5
ENDBRANCH 3 4
ENDBRANCH 2 3
ENDBRANCH 1 2
BRANCH 1 10
ATOM     10  C   LYS D   3     -22.278  22.037  18.704  1.00 12.20 LIG 0.24  C 
ATOM     11 O    LYS D   3     -21.448  21.750  17.850  1.00 13.71 LIG-0.27  OA
ATOM     12  N   THR D   4     -22.141  23.070  19.522  1.00 12.61 LIG-0.34  N 
ATOM     13 H    THR D   4     -22.698  23.262  20.149  1.00 12.61 LIG 0.16  HD
BRANCH 12 14
ATOM     14  CA  THR D   4     -21.011  23.981  19.424  1.00 12.32 LIG 0.20  C 
BRANCH 14 15
ATOM     15  CB  THR D   4     -21.487  25.427  19.626  1.00 14.29 LIG 0.15  C 
ATOM     16  CG2 THR D   4     -21.819  26.070  18.300  1.00 19.77 LIG 0.04  C 
BRANCH 15 17
ATOM     17 OG1  THR D   4     -22.658  25.425  20.454  1.00 20.60 LIG-0.39  OA
ATOM     18 HG1  THR D   4     -22.884  26.217  20.622  1.00 20.60 LIG 0.21  HD
ENDBRANCH 15 17
ENDBRANCH 14 15
BRANCH 14 19
ATOM     19  C   THR D   4     -19.875  23.726  20.407  1.00 10.70 LIG 0.24  C 
ATOM     20  N   LYS D   5     -18.654  23.719  19.880  1.00 11.43 LIG-0.34  N 
ATOM     21 H    LYS D   5     -18.501  23.819  19.040  1.00 11.43 LIG 0.16  HD
ATOM     22 O    THR D   4     -20.098  23.552  21.603  1.00 10.42 LIG-0.27  OA
BRANCH 20 23
ATOM     23  CA  LYS D   5     -17.450  23.541  20.685  1.00 11.71 LIG 0.18  C 
BRANCH 23 24
ATOM     24  C   LYS D   5     -16.402  24.552  20.225  1.00 11.58 LIG 0.20  C 
ATOM     25 OXT  LYS D   5     -16.272  24.751  18.995  1.00 10.04 LIG-0.65  OA
ATOM     26 O    LYS D   5     -15.714  25.125  21.093  1.00 12.40 LIG-0.65  OA
ENDBRANCH 23 24
BRANCH 23 27
ATOM     27  CB  LYS D   5     -16.898  22.120  20.547  1.00 15.42 LIG 0.04  C 
BRANCH 27 28
ATOM     28  CG  LYS D   5     -17.066  21.266  21.791  1.00 18.22 LIG 0.00  C 
BRANCH 28 29
ATOM     29  CD  LYS D   5     -15.790  20.526  22.160  1.00 24.34 LIG 0.03  C 
BRANCH 29 30
ATOM     30  CE  LYS D   5     -15.601  19.256  21.359  1.00 24.78 LIG 0.23  C 
BRANCH 30 31
ATOM     31  NZ  LYS D   5     -14.550  18.403  21.982  1.00 27.37 LIG-0.08  N 
ATOM     32 HZ1  LYS D   5     -14.869  17.581  22.104  1.00 27.37 LIG 0.27  HD
ATOM     33 HZ2  LYS D   5     -13.840  18.370  21.447  1.00 27.37 LIG 0.27  HD
ATOM     34 HZ3  LYS D   5     -14.315  18.749  22.768  1.00 27.37 LIG 0.27  HD
ENDBRANCH 30 31
ENDBRANCH 29 30
ENDBRANCH 28 29
ENDBRANCH 27 28
ENDBRANCH 23 27
ENDBRANCH 20 23
ENDBRANCH 14 19
ENDBRANCH 12 14
ENDBRANCH 1 10
BRANCH 1 35
ATOM     35  N   LYS D   3     -23.613  20.178  17.850  1.00 13.26 LIG-0.35  N 
ATOM     36  C   SER D   2     -24.617  20.164  16.978  1.00 15.91 LIG 0.24  C 
ATOM     37 O    SER D   2     -25.525  20.993  16.995  1.00 16.67 LIG-0.27  OA
ATOM     38 H    LYS D   3     -22.969  19.607  17.855  1.00 13.26 LIG 0.16  HD
BRANCH 36 39
ATOM     39  CA  SER D   2     -24.596  19.050  15.934  1.00 18.03 LIG 0.20  C 
BRANCH 39 40
ATOM     40  N   SER D   2     -25.959  18.673  15.577  1.00 20.90 LIG-0.34  N 
ATOM     41  C   ALA D   1     -26.283  17.421  15.269  0.60 22.25 LIG 0.25  C 
ATOM     42 O    ALA D   1     -25.465  16.502  15.253  0.60 23.13 LIG-0.27  OA
ATOM     43 H    SER D   2     -26.521  19.324  15.585  1.00 20.90 LIG 0.16  HD
BRANCH 41 44
ATOM     44  CA  ALA D   1     -27.747  17.168  14.925  0.60 22.82 LIG 0.27  C 
ATOM     45  CB  ALA D   1     -28.601  17.266  16.181  0.60 23.19 LIG 0.05  C 
BRANCH 44 46
ATOM     46  N   ALA D   1     -27.922  15.828  14.297  0.60 23.87 LIG-0.07  N 
ATOM     47 H2   ALA D   1     -27.124  15.468  14.138  0.60 23.87 LIG 0.28  HD
ATOM     48 H1   ALA D   1     -28.366  15.915  13.532  0.60 23.87 LIG 0.28  HD
ATOM     49 H3   ALA D   1     -28.380  15.300  14.847  0.60 23.87 LIG 0.28  HD
ENDBRANCH 44 46
ENDBRANCH 41 44
ENDBRANCH 39 40
BRANCH 39 50
ATOM     50  CB  SER D   2     -23.843  19.527  14.689  1.00 19.56 LIG 0.20  C 
BRANCH 50 51
ATOM     51 OG   SER D   2     -24.147  18.712  13.570  1.00 25.44 LIG-0.40  OA
ATOM     52 HG   SER D   2     -23.589  18.085  13.520  1.00 25.44 LIG 0.21  HD
ENDBRANCH 50 51
ENDBRANCH 39 50
ENDBRANCH 36 39
ENDBRANCH 1 35
TORSDOF 24
ENDMDL
