MODEL 1
USER: ADFR SOLUTION from run 93
USER: SCORE 11.167790 LL:  -2.948 LR:  -9.860 RR:   0.000 FEB:  -5.385
USER: RMSD 1.965192
USER: SEED 92
USER: STATUS 1 or 2 clusters left
USER: GENES 17
USER: genes 0 Translation |==|  0.48141 0.47339 0.45227
USER: genes 1 Rotation |==|  0.42795 0.35684 0.47817 0.97312
USER: genes 2 Torsion [C]-N--CA-[CB] |==|  0.83327
USER: genes 3 Torsion [N]-CA--CB-[CG] |==|  0.66166
USER: genes 4 Torsion [CA]-CB--CG-[CD1] |==|  0.60761
USER: genes 5 Torsion [N]-CA--C-[N] |==|  0.21150
USER: genes 6 Torsion [C]-N--CA-[CB] |==|  0.49613
USER: genes 7 Torsion [N]-CA--CB-[CG] |==|  0.56088
USER: genes 8 Torsion [CA]-CB--CG-[ND1] |==|  0.26039
USER: genes 9 Torsion [N]-CA--C-[O] |==|  0.56459
USER: genes 10 Torsion [N]-C--CA-[N] |==|  0.78076
USER: genes 11 Torsion [C]-CA--N-[C] |==|  0.65000
USER: genes 12 Torsion [N]-C--CA-[N] |==|  0.25180
USER: genes 13 Torsion [C]-CA--CB-[CG2] |==|  0.77370
USER: genes 14 Torsion [C]-CA--N-[H3] |==|  0.04700
USER: genes 15 Torsion [C]-CA--CB-[CG] |==|  0.69082
USER: genes 16 Torsion [CA]-CB--CG-[CD1] |==|  0.38096
ROOT
ATOM      1  C   LEU P   2     -20.588  21.522 -16.192  0.50 57.15 LIG 0.24  C 
ATOM      2 O    LEU P   2     -19.792  21.150 -17.062  0.50 57.16 LIG-0.27  OA
ATOM      3  N   LEU P   3     -21.083  20.822 -15.186  0.50 57.16 LIG-0.35  N 
ATOM      4 H    LEU P   3     -21.795  21.090 -14.782  0.50 57.16 LIG 0.16  HD
ENDROOT
BRANCH 3 5
ATOM      5  CA  LEU P   3     -20.602  19.607 -14.617  0.50 57.19 LIG 0.18  C 
BRANCH 5 6
ATOM      6  CB  LEU P   3     -20.538  18.440 -15.580  0.50 57.26 LIG 0.04  C 
BRANCH 6 7
ATOM      7  CG  LEU P   3     -21.433  17.391 -14.908  0.50 57.44 LIG-0.02  C 
ATOM      8  CD1 LEU P   3     -20.872  15.988 -15.054  0.50 57.60 LIG 0.01  C 
ATOM      9  CD2 LEU P   3     -21.734  17.739 -13.453  0.50 57.51 LIG 0.01  C 
ENDBRANCH 6 7
ENDBRANCH 5 6
BRANCH 5 10
ATOM     10  C   LEU P   3     -19.222  20.098 -14.198  0.50 57.14 LIG 0.24  C 
ATOM     11  N   HIS P   4     -19.199  20.861 -13.106  0.50 57.08 LIG-0.35  N 
ATOM     12 H    HIS P   4     -19.904  21.059 -12.656  0.50 57.08 LIG 0.16  HD
ATOM     13 O    LEU P   3     -18.226  19.852 -14.875  0.50 57.14 LIG-0.27  OA
BRANCH 11 14
ATOM     14  CA  HIS P   4     -17.974  21.441 -12.556  0.50 57.02 LIG 0.17  C 
BRANCH 14 15
ATOM     15  CB  HIS P   4     -18.298  22.294 -11.315  0.50 56.94 LIG 0.09  C 
BRANCH 15 16
ATOM     16  CG  HIS P   4     -17.260  23.327 -10.978  0.50 56.80 LIG 0.05  A 
ATOM     17 ND1  HIS P   4     -17.325  24.632 -11.418  0.50 56.77 LIG-0.25  NA
ATOM     18  CE1 HIS P   4     -16.275  25.299 -10.975  0.50 56.50 LIG 0.21  A 
ATOM     19  NE2 HIS P   4     -15.526  24.473 -10.268  0.50 56.43 LIG-0.36  N 
ATOM     20 HE2  HIS P   4     -14.787  24.679  -9.877  0.50 56.43 LIG 0.17  HD
ATOM     21  CD2 HIS P   4     -16.117  23.233 -10.258  0.50 56.57 LIG 0.12  A 
ENDBRANCH 15 16
ENDBRANCH 14 15
BRANCH 14 22
ATOM     22  C   HIS P   4     -16.979  20.333 -12.219  0.50 57.04 LIG 0.22  C 
ATOM     23 O    HIS P   4     -16.092  20.513 -11.385  0.50 57.12 LIG-0.29  OA
ENDBRANCH 14 22
ENDBRANCH 11 14
ENDBRANCH 5 10
ENDBRANCH 3 5
BRANCH 1 24
ATOM     24  CA  LEU P   2     -21.191  22.879 -16.082  0.50 57.16 LIG 0.18  C 
BRANCH 24 25
ATOM     25  N   LEU P   2     -22.531  23.168 -16.525  0.50 57.19 LIG-0.35  N 
ATOM     26  C   VAL P   1     -22.715  24.161 -17.380  0.50 57.27 LIG 0.25  C 
ATOM     27 O    VAL P   1     -21.787  24.685 -18.005  0.50 57.24 LIG-0.27  OA
ATOM     28 H    LEU P   2     -23.150  22.666 -16.201  0.50 57.19 LIG 0.16  HD
BRANCH 26 29
ATOM     29  CA  VAL P   1     -24.155  24.584 -17.580  0.50 57.27 LIG 0.28  C 
BRANCH 29 30
ATOM     30  CB  VAL P   1     -24.365  25.095 -19.017  0.50 57.30 LIG 0.02  C 
ATOM     31  CG2 VAL P   1     -23.910  26.541 -19.148  0.50 57.34 LIG 0.01  C 
ATOM     32  CG1 VAL P   1     -25.820  24.935 -19.439  0.50 57.33 LIG 0.01  C 
ENDBRANCH 29 30
BRANCH 29 33
ATOM     33  N   VAL P   1     -24.442  25.657 -16.587  0.50 57.23 LIG-0.07  N 
ATOM     34 H3   VAL P   1     -23.677  25.985 -16.273  0.50 57.23 LIG 0.28  HD
ATOM     35 H2   VAL P   1     -24.918  25.320 -15.914  0.50 57.23 LIG 0.28  HD
ATOM     36 H1   VAL P   1     -24.905  26.309 -16.979  0.50 57.23 LIG 0.28  HD
ENDBRANCH 29 33
ENDBRANCH 26 29
ENDBRANCH 24 25
BRANCH 24 37
ATOM     37  CB  LEU P   2     -21.060  23.140 -14.576  0.50 57.14 LIG 0.04  C 
BRANCH 37 38
ATOM     38  CG  LEU P   2     -22.184  23.225 -13.566  0.50 56.96 LIG-0.02  C 
ATOM     39  CD1 LEU P   2     -21.747  22.461 -12.319  0.50 57.03 LIG 0.01  C 
ATOM     40  CD2 LEU P   2     -22.482  24.669 -13.260  0.50 56.70 LIG 0.01  C 
ENDBRANCH 37 38
ENDBRANCH 24 37
ENDBRANCH 1 24
TORSDOF 15
ENDMDL
MODEL 2
USER: ADFR SOLUTION from run 100
USER: SCORE 11.081880 LL:  -2.948 LR:  -8.973 RR:   0.000 FEB:  -4.499
USER: RMSD 1.796879
USER: SEED 99
USER: STATUS 1 or 2 clusters left
USER: GENES 17
USER: genes 0 Translation |==|  0.49349 0.52211 0.45793
USER: genes 1 Rotation |==|  0.51605 0.26967 0.43820 0.93917
USER: genes 2 Torsion [C]-N--CA-[CB] |==|  0.77222
USER: genes 3 Torsion [N]-CA--CB-[CG] |==|  0.96988
USER: genes 4 Torsion [CA]-CB--CG-[CD1] |==|  0.32116
USER: genes 5 Torsion [N]-CA--C-[N] |==|  0.18817
USER: genes 6 Torsion [C]-N--CA-[CB] |==|  0.50114
USER: genes 7 Torsion [N]-CA--CB-[CG] |==|  0.58536
USER: genes 8 Torsion [CA]-CB--CG-[ND1] |==|  0.26725
USER: genes 9 Torsion [N]-CA--C-[O] |==|  0.54638
USER: genes 10 Torsion [N]-C--CA-[N] |==|  0.80704
USER: genes 11 Torsion [C]-CA--N-[C] |==|  0.61961
USER: genes 12 Torsion [N]-C--CA-[N] |==|  0.02989
USER: genes 13 Torsion [C]-CA--CB-[CG2] |==|  0.18340
USER: genes 14 Torsion [C]-CA--N-[H3] |==|  0.90331
USER: genes 15 Torsion [C]-CA--CB-[CG] |==|  0.71138
USER: genes 16 Torsion [CA]-CB--CG-[CD1] |==|  0.37370
ROOT
ATOM      1  C   LEU P   2     -20.225  22.983 -16.022  0.50 57.15 LIG 0.24  C 
ATOM      2 O    LEU P   2     -19.129  22.861 -16.581  0.50 57.16 LIG-0.27  OA
ATOM      3  N   LEU P   3     -21.031  22.030 -15.587  0.50 57.16 LIG-0.35  N 
ATOM      4 H    LEU P   3     -21.859  22.202 -15.430  0.50 57.16 LIG 0.16  HD
ENDROOT
BRANCH 3 5
ATOM      5  CA  LEU P   3     -20.735  20.663 -15.314  0.50 57.19 LIG 0.18  C 
BRANCH 5 6
ATOM      6  CB  LEU P   3     -20.734  19.762 -16.532  0.50 57.26 LIG 0.04  C 
BRANCH 6 7
ATOM      7  CG  LEU P   3     -21.342  20.655 -17.621  0.50 57.44 LIG-0.02  C 
ATOM      8  CD1 LEU P   3     -20.351  20.948 -18.733  0.50 57.60 LIG 0.01  C 
ATOM      9  CD2 LEU P   3     -22.655  20.093 -18.158  0.50 57.51 LIG 0.01  C 
ENDBRANCH 6 7
ENDBRANCH 5 6
BRANCH 5 10
ATOM     10  C   LEU P   3     -19.343  20.856 -14.727  0.50 57.14 LIG 0.24  C 
ATOM     11  N   HIS P   4     -19.306  21.485 -13.553  0.50 57.08 LIG-0.35  N 
ATOM     12 H    HIS P   4     -20.011  21.758 -13.143  0.50 57.08 LIG 0.16  HD
ATOM     13 O    LEU P   3     -18.338  20.509 -15.343  0.50 57.14 LIG-0.27  OA
BRANCH 11 14
ATOM     14  CA  HIS P   4     -18.064  21.780 -12.838  0.50 57.02 LIG 0.17  C 
BRANCH 14 15
ATOM     15  CB  HIS P   4     -18.371  22.505 -11.513  0.50 56.94 LIG 0.09  C 
BRANCH 15 16
ATOM     16  CG  HIS P   4     -17.305  23.462 -11.063  0.50 56.80 LIG 0.05  A 
ATOM     17 ND1  HIS P   4     -17.352  24.816 -11.318  0.50 56.77 LIG-0.25  NA
ATOM     18  CE1 HIS P   4     -16.279  25.397 -10.813  0.50 56.50 LIG 0.21  A 
ATOM     19  NE2 HIS P   4     -15.531  24.469 -10.245  0.50 56.43 LIG-0.36  N 
ATOM     20 HE2  HIS P   4     -14.781  24.606  -9.848  0.50 56.43 LIG 0.17  HD
ATOM     21  CD2 HIS P   4     -16.148  23.250 -10.391  0.50 56.57 LIG 0.12  A 
ENDBRANCH 15 16
ENDBRANCH 14 15
BRANCH 14 22
ATOM     22  C   HIS P   4     -17.286  20.490 -12.593  0.50 57.04 LIG 0.22  C 
ATOM     23 O    HIS P   4     -16.381  20.447 -11.760  0.50 57.12 LIG-0.29  OA
ENDBRANCH 14 22
ENDBRANCH 11 14
ENDBRANCH 5 10
ENDBRANCH 3 5
BRANCH 1 24
ATOM     24  CA  LEU P   2     -20.909  24.269 -15.711  0.50 57.16 LIG 0.18  C 
BRANCH 24 25
ATOM     25  N   LEU P   2     -22.105  24.694 -16.394  0.50 57.19 LIG-0.35  N 
ATOM     26  C   VAL P   1     -22.202  25.957 -16.775  0.50 57.27 LIG 0.25  C 
ATOM     27 O    VAL P   1     -21.233  26.723 -16.802  0.50 57.24 LIG-0.27  OA
ATOM     28 H    LEU P   2     -22.702  24.087 -16.518  0.50 57.19 LIG 0.16  HD
BRANCH 26 29
ATOM     29  CA  VAL P   1     -23.581  26.393 -17.225  0.50 57.27 LIG 0.28  C 
BRANCH 29 30
ATOM     30  CB  VAL P   1     -23.971  27.716 -16.541  0.50 57.30 LIG 0.02  C 
ATOM     31  CG2 VAL P   1     -23.070  28.850 -17.006  0.50 57.34 LIG 0.01  C 
ATOM     32  CG1 VAL P   1     -23.935  27.570 -15.025  0.50 57.33 LIG 0.01  C 
ENDBRANCH 29 30
BRANCH 29 33
ATOM     33  N   VAL P   1     -24.530  25.304 -16.859  0.50 57.23 LIG-0.07  N 
ATOM     34 H3   VAL P   1     -24.126  24.516 -16.944  0.50 57.23 LIG 0.28  HD
ATOM     35 H2   VAL P   1     -25.238  25.334 -17.397  0.50 57.23 LIG 0.28  HD
ATOM     36 H1   VAL P   1     -24.794  25.413 -16.015  0.50 57.23 LIG 0.28  HD
ENDBRANCH 29 33
ENDBRANCH 26 29
ENDBRANCH 24 25
BRANCH 24 37
ATOM     37  CB  LEU P   2     -21.182  24.105 -14.211  0.50 57.14 LIG 0.04  C 
BRANCH 37 38
ATOM     38  CG  LEU P   2     -22.506  23.777 -13.557  0.50 56.96 LIG-0.02  C 
ATOM     39  CD1 LEU P   2     -22.253  22.695 -12.511  0.50 57.03 LIG 0.01  C 
ATOM     40  CD2 LEU P   2     -23.090  25.022 -12.943  0.50 56.70 LIG 0.01  C 
ENDBRANCH 37 38
ENDBRANCH 24 37
ENDBRANCH 1 24
TORSDOF 15
ENDMDL
MODEL 3
USER: ADFR SOLUTION from run 92
USER: SCORE 10.542365 LL:  -2.968 LR:  -8.730 RR:   0.000 FEB:  -4.256
USER: RMSD 2.689709
USER: SEED 91
USER: STATUS no improvement in best 3 clusters for 5 generations
USER: GENES 17
USER: genes 0 Translation |==|  0.48611 0.45563 0.45582
USER: genes 1 Rotation |==|  0.42337 0.38348 0.46379 0.97879
USER: genes 2 Torsion [C]-N--CA-[CB] |==|  0.78423
USER: genes 3 Torsion [N]-CA--CB-[CG] |==|  0.64471
USER: genes 4 Torsion [CA]-CB--CG-[CD1] |==|  0.67578
USER: genes 5 Torsion [N]-CA--C-[N] |==|  0.16276
USER: genes 6 Torsion [C]-N--CA-[CB] |==|  0.37755
USER: genes 7 Torsion [N]-CA--CB-[CG] |==|  0.56938
USER: genes 8 Torsion [CA]-CB--CG-[ND1] |==|  0.02090
USER: genes 9 Torsion [N]-CA--C-[O] |==|  0.76148
USER: genes 10 Torsion [N]-C--CA-[N] |==|  0.76707
USER: genes 11 Torsion [C]-CA--N-[C] |==|  0.60384
USER: genes 12 Torsion [N]-C--CA-[N] |==|  0.23785
USER: genes 13 Torsion [C]-CA--CB-[CG2] |==|  0.73374
USER: genes 14 Torsion [C]-CA--N-[H3] |==|  0.10339
USER: genes 15 Torsion [C]-CA--CB-[CG] |==|  0.69956
USER: genes 16 Torsion [CA]-CB--CG-[CD1] |==|  0.41179
ROOT
ATOM      1  C   LEU P   2     -20.447  20.989 -16.085  0.50 57.15 LIG 0.24  C 
ATOM      2 O    LEU P   2     -19.771  20.569 -17.032  0.50 57.16 LIG-0.27  OA
ATOM      3  N   LEU P   3     -20.891  20.317 -15.038  0.50 57.16 LIG-0.35  N 
ATOM      4 H    LEU P   3     -21.536  20.632 -14.564  0.50 57.16 LIG 0.16  HD
ENDROOT
BRANCH 3 5
ATOM      5  CA  LEU P   3     -20.446  19.064 -14.523  0.50 57.19 LIG 0.18  C 
BRANCH 5 6
ATOM      6  CB  LEU P   3     -20.935  17.855 -15.294  0.50 57.26 LIG 0.04  C 
BRANCH 6 7
ATOM      7  CG  LEU P   3     -21.549  16.974 -14.198  0.50 57.44 LIG-0.02  C 
ATOM      8  CD1 LEU P   3     -20.815  15.653 -14.055  0.50 57.60 LIG 0.01  C 
ATOM      9  CD2 LEU P   3     -21.667  17.711 -12.867  0.50 57.51 LIG 0.01  C 
ENDBRANCH 6 7
ENDBRANCH 5 6
BRANCH 5 10
ATOM     10  C   LEU P   3     -18.948  19.288 -14.674  0.50 57.14 LIG 0.24  C 
ATOM     11  N   HIS P   4     -18.463  20.345 -14.022  0.50 57.08 LIG-0.35  N 
ATOM     12 H    HIS P   4     -18.951  20.862 -13.539  0.50 57.08 LIG 0.16  HD
ATOM     13 O    LEU P   3     -18.267  18.574 -15.407  0.50 57.14 LIG-0.27  OA
BRANCH 11 14
ATOM     14  CA  HIS P   4     -17.054  20.735 -14.057  0.50 57.02 LIG 0.17  C 
BRANCH 14 15
ATOM     15  CB  HIS P   4     -16.928  22.259 -14.247  0.50 56.94 LIG 0.09  C 
BRANCH 15 16
ATOM     16  CG  HIS P   4     -15.638  22.706 -14.873  0.50 56.80 LIG 0.05  A 
ATOM     17 ND1  HIS P   4     -14.706  21.829 -15.386  0.50 56.77 LIG-0.25  NA
ATOM     18  CE1 HIS P   4     -13.675  22.508 -15.856  0.50 56.50 LIG 0.21  A 
ATOM     19  NE2 HIS P   4     -13.899  23.794 -15.662  0.50 56.43 LIG-0.36  N 
ATOM     20 HE2  HIS P   4     -13.369  24.434 -15.886  0.50 56.43 LIG 0.17  HD
ATOM     21  CD2 HIS P   4     -15.118  23.945 -15.044  0.50 56.57 LIG 0.12  A 
ENDBRANCH 15 16
ENDBRANCH 14 15
BRANCH 14 22
ATOM     22  C   HIS P   4     -16.356  20.280 -12.779  0.50 57.04 LIG 0.22  C 
ATOM     23 O    HIS P   4     -16.374  20.978 -11.765  0.50 57.12 LIG-0.29  OA
ENDBRANCH 14 22
ENDBRANCH 11 14
ENDBRANCH 5 10
ENDBRANCH 3 5
BRANCH 1 24
ATOM     24  CA  LEU P   2     -20.933  22.386 -15.911  0.50 57.16 LIG 0.18  C 
BRANCH 24 25
ATOM     25  N   LEU P   2     -22.253  22.801 -16.314  0.50 57.19 LIG-0.35  N 
ATOM     26  C   VAL P   1     -22.406  24.006 -16.838  0.50 57.27 LIG 0.25  C 
ATOM     27 O    VAL P   1     -21.454  24.690 -17.228  0.50 57.24 LIG-0.27  OA
ATOM     28 H    LEU P   2     -22.881  22.227 -16.188  0.50 57.19 LIG 0.16  HD
BRANCH 26 29
ATOM     29  CA  VAL P   1     -23.839  24.476 -16.973  0.50 57.27 LIG 0.28  C 
BRANCH 29 30
ATOM     30  CB  VAL P   1     -23.959  25.495 -18.121  0.50 57.30 LIG 0.02  C 
ATOM     31  CG2 VAL P   1     -23.883  26.918 -17.589  0.50 57.34 LIG 0.01  C 
ATOM     32  CG1 VAL P   1     -25.241  25.269 -18.911  0.50 57.33 LIG 0.01  C 
ENDBRANCH 29 30
BRANCH 29 33
ATOM     33  N   VAL P   1     -24.227  25.092 -15.673  0.50 57.23 LIG-0.07  N 
ATOM     34 H3   VAL P   1     -23.533  25.534 -15.335  0.50 57.23 LIG 0.28  HD
ATOM     35 H2   VAL P   1     -24.476  24.454 -15.105  0.50 57.23 LIG 0.28  HD
ATOM     36 H1   VAL P   1     -24.904  25.655 -15.802  0.50 57.23 LIG 0.28  HD
ENDBRANCH 29 33
ENDBRANCH 26 29
ENDBRANCH 24 25
BRANCH 24 37
ATOM     37  CB  LEU P   2     -20.754  22.576 -14.400  0.50 57.14 LIG 0.04  C 
BRANCH 37 38
ATOM     38  CG  LEU P   2     -21.846  22.646 -13.355  0.50 56.96 LIG-0.02  C 
ATOM     39  CD1 LEU P   2     -21.290  22.058 -12.061  0.50 57.03 LIG 0.01  C 
ATOM     40  CD2 LEU P   2     -22.283  24.076 -13.175  0.50 56.70 LIG 0.01  C 
ENDBRANCH 37 38
ENDBRANCH 24 37
ENDBRANCH 1 24
TORSDOF 15
ENDMDL
MODEL 4
USER: ADFR SOLUTION from run 80
USER: SCORE 10.258198 LL:  -3.068 LR:  -8.151 RR:   0.000 FEB:  -3.677
USER: RMSD 1.984071
USER: SEED 79
USER: STATUS no improvement in best 2 clusters for 5 generations
USER: GENES 17
USER: genes 0 Translation |==|  0.48822 0.47290 0.47159
USER: genes 1 Rotation |==|  0.58302 0.33653 0.44655 0.96209
USER: genes 2 Torsion [C]-N--CA-[CB] |==|  0.76642
USER: genes 3 Torsion [N]-CA--CB-[CG] |==|  0.55923
USER: genes 4 Torsion [CA]-CB--CG-[CD1] |==|  0.18350
USER: genes 5 Torsion [N]-CA--C-[N] |==|  0.16984
USER: genes 6 Torsion [C]-N--CA-[CB] |==|  0.16345
USER: genes 7 Torsion [N]-CA--CB-[CG] |==|  0.25513
USER: genes 8 Torsion [CA]-CB--CG-[ND1] |==|  0.20575
USER: genes 9 Torsion [N]-CA--C-[O] |==|  0.44780
USER: genes 10 Torsion [N]-C--CA-[N] |==|  0.74102
USER: genes 11 Torsion [C]-CA--N-[C] |==|  0.69286
USER: genes 12 Torsion [N]-C--CA-[N] |==|  0.09601
USER: genes 13 Torsion [C]-CA--CB-[CG2] |==|  0.18789
USER: genes 14 Torsion [C]-CA--N-[H3] |==|  0.15422
USER: genes 15 Torsion [C]-CA--CB-[CG] |==|  0.33207
USER: genes 16 Torsion [CA]-CB--CG-[CD1] |==|  0.57923
ROOT
ATOM      1  C   LEU P   2     -20.384  21.507 -15.612  0.50 57.15 LIG 0.24  C 
ATOM      2 O    LEU P   2     -19.464  21.734 -16.407  0.50 57.16 LIG-0.27  OA
ATOM      3  N   LEU P   3     -20.908  20.339 -15.283  0.50 57.16 LIG-0.35  N 
ATOM      4 H    LEU P   3     -21.682  20.303 -14.910  0.50 57.16 LIG 0.16  HD
ENDROOT
BRANCH 3 5
ATOM      5  CA  LEU P   3     -20.364  19.033 -15.455  0.50 57.19 LIG 0.18  C 
BRANCH 5 6
ATOM      6  CB  LEU P   3     -20.598  18.427 -16.824  0.50 57.26 LIG 0.04  C 
BRANCH 6 7
ATOM      7  CG  LEU P   3     -20.434  16.924 -16.567  0.50 57.44 LIG-0.02  C 
ATOM      8  CD1 LEU P   3     -21.527  16.380 -15.664  0.50 57.60 LIG 0.01  C 
ATOM      9  CD2 LEU P   3     -20.315  16.129 -17.863  0.50 57.51 LIG 0.01  C 
ENDBRANCH 6 7
ENDBRANCH 5 6
BRANCH 5 10
ATOM     10  C   LEU P   3     -18.901  19.374 -15.207  0.50 57.14 LIG 0.24  C 
ATOM     11  N   HIS P   4     -18.630  19.868 -13.999  0.50 57.08 LIG-0.35  N 
ATOM     12 H    HIS P   4     -19.230  19.981 -13.393  0.50 57.08 LIG 0.16  HD
ATOM     13 O    LEU P   3     -18.060  19.258 -16.095  0.50 57.14 LIG-0.27  OA
BRANCH 11 14
ATOM     14  CA  HIS P   4     -17.289  20.271 -13.577  0.50 57.02 LIG 0.17  C 
BRANCH 14 15
ATOM     15  CB  HIS P   4     -16.742  21.366 -14.514  0.50 56.94 LIG 0.09  C 
BRANCH 15 16
ATOM     16  CG  HIS P   4     -17.025  22.771 -14.065  0.50 56.80 LIG 0.05  A 
ATOM     17 ND1  HIS P   4     -16.365  23.374 -13.016  0.50 56.77 LIG-0.25  NA
ATOM     18  CE1 HIS P   4     -16.831  24.599 -12.848  0.50 56.50 LIG 0.21  A 
ATOM     19  NE2 HIS P   4     -17.775  24.812 -13.746  0.50 56.43 LIG-0.36  N 
ATOM     20 HE2  HIS P   4     -18.226  25.539 -13.834  0.50 56.43 LIG 0.17  HD
ATOM     21  CD2 HIS P   4     -17.919  23.683 -14.516  0.50 56.57 LIG 0.12  A 
ENDBRANCH 15 16
ENDBRANCH 14 15
BRANCH 14 22
ATOM     22  C   HIS P   4     -17.322  20.751 -12.129  0.50 57.04 LIG 0.22  C 
ATOM     23 O    HIS P   4     -16.291  20.812 -11.460  0.50 57.12 LIG-0.29  OA
ENDBRANCH 14 22
ENDBRANCH 11 14
ENDBRANCH 5 10
ENDBRANCH 3 5
BRANCH 1 24
ATOM     24  CA  LEU P   2     -21.135  22.528 -14.830  0.50 57.16 LIG 0.18  C 
BRANCH 24 25
ATOM     25  N   LEU P   2     -22.289  23.211 -15.358  0.50 57.19 LIG-0.35  N 
ATOM     26  C   VAL P   1     -22.187  24.500 -15.639  0.50 57.27 LIG 0.25  C 
ATOM     27 O    VAL P   1     -21.101  25.084 -15.711  0.50 57.24 LIG-0.27  OA
ATOM     28 H    LEU P   2     -22.994  22.731 -15.462  0.50 57.19 LIG 0.16  HD
BRANCH 26 29
ATOM     29  CA  VAL P   1     -23.497  25.207 -15.917  0.50 57.27 LIG 0.28  C 
BRANCH 29 30
ATOM     30  CB  VAL P   1     -23.362  26.712 -15.625  0.50 57.30 LIG 0.02  C 
ATOM     31  CG2 VAL P   1     -22.423  27.373 -16.623  0.50 57.34 LIG 0.01  C 
ATOM     32  CG1 VAL P   1     -22.897  26.945 -14.194  0.50 57.33 LIG 0.01  C 
ENDBRANCH 29 30
BRANCH 29 33
ATOM     33  N   VAL P   1     -24.529  24.585 -15.040  0.50 57.23 LIG-0.07  N 
ATOM     34 H3   VAL P   1     -24.264  24.629 -14.192  0.50 57.23 LIG 0.28  HD
ATOM     35 H2   VAL P   1     -24.642  23.734 -15.271  0.50 57.23 LIG 0.28  HD
ATOM     36 H1   VAL P   1     -25.299  25.022 -15.132  0.50 57.23 LIG 0.28  HD
ENDBRANCH 29 33
ENDBRANCH 26 29
ENDBRANCH 24 25
BRANCH 24 37
ATOM     37  CB  LEU P   2     -21.518  21.722 -13.583  0.50 57.14 LIG 0.04  C 
BRANCH 37 38
ATOM     38  CG  LEU P   2     -21.129  22.021 -12.151  0.50 56.96 LIG-0.02  C 
ATOM     39  CD1 LEU P   2     -21.084  20.697 -11.395  0.50 57.03 LIG 0.01  C 
ATOM     40  CD2 LEU P   2     -19.798  22.724 -12.124  0.50 56.70 LIG 0.01  C 
ENDBRANCH 37 38
ENDBRANCH 24 37
ENDBRANCH 1 24
TORSDOF 15
ENDMDL
