MODEL 1
USER: ADFR SOLUTION from run 45
USER: SCORE 14.800000 LL:  -3.698 LR: -12.211 RR:   0.000 FEB:  -6.245
USER: RMSD 1.879472
USER: SEED 44
USER: STATUS no improvement in best 2 clusters for 5 generations
USER: GENES 22
USER: genes 0 Translation |==|  0.43770 0.46536 0.57258
USER: genes 1 Rotation |==|  0.47481 0.56428 0.53549 0.99394
USER: genes 2 Torsion [CB]-CA--N-[C] |==|  0.08893
USER: genes 3 Torsion [N]-C--CA-[N] |==|  0.30066
USER: genes 4 Torsion [C]-CA--CB-[CG] |==|  0.28886
USER: genes 5 Torsion [CA]-CB--CG-[CD1] |==|  0.00259
USER: genes 6 Torsion [C]-CA--N-[C] |==|  0.64597
USER: genes 7 Torsion [N]-C--CA-[N] |==|  0.46166
USER: genes 8 Torsion [C]-CA--N-[H3] |==|  0.94062
USER: genes 9 Torsion [C]-CA--CB-[CG] |==|  0.14199
USER: genes 10 Torsion [CA]-CB--CG-[CD1] |==|  0.34333
USER: genes 11 Torsion [N]-CA--CB-[CG] |==|  0.76953
USER: genes 12 Torsion [CA]-CB--CG-[CD1] |==|  0.85113
USER: genes 13 Torsion [N]-CA--C-[N] |==|  0.17391
USER: genes 14 Torsion [C]-N--CA-[C] |==|  0.85556
USER: genes 15 Torsion [N]-CA--CB-[CG] |==|  0.28704
USER: genes 16 Torsion [CA]-CB--CG-[OD1] |==|  0.32542
USER: genes 17 Torsion [N]-CA--C-[N] |==|  0.41081
USER: genes 18 Torsion [C]-N--CA-[C] |==|  0.94076
USER: genes 19 Torsion [N]-CA--C-[O] |==|  0.50885
USER: genes 20 Torsion [N]-CA--CB-[CG] |==|  0.81152
USER: genes 21 Torsion [CA]-CB--CG-[OD1] |==|  0.55500
ROOT
ATOM      1  CA  PHE P   3      18.371 -15.899 -12.113  1.00 45.52 LIG 0.18  C 
ENDROOT
BRANCH 1 2
ATOM      2  N   PHE P   3      18.853 -15.318 -13.428  1.00 45.79 LIG-0.35  N 
ATOM      3 H    PHE P   3      18.814 -14.460 -13.414  1.00 45.79 LIG 0.16  HD
ATOM      4  C   LEU P   2      19.298 -15.949 -14.522  1.00 46.01 LIG 0.24  C 
ATOM      5 O    LEU P   2      19.441 -17.164 -14.547  1.00 46.46 LIG-0.27  OA
BRANCH 4 6
ATOM      6  CA  LEU P   2      19.699 -15.073 -15.787  1.00 45.94 LIG 0.18  C 
BRANCH 6 7
ATOM      7  CB  LEU P   2      19.031 -15.563 -17.100  1.00 45.93 LIG 0.04  C 
BRANCH 7 8
ATOM      8  CG  LEU P   2      17.825 -14.815 -17.739  1.00 45.11 LIG-0.02  C 
ATOM      9  CD1 LEU P   2      17.388 -13.553 -16.960  1.00 44.79 LIG 0.01  C 
ATOM     10  CD2 LEU P   2      18.094 -14.451 -19.197  1.00 44.35 LIG 0.01  C 
ENDBRANCH 7 8
ENDBRANCH 6 7
BRANCH 6 11
ATOM     11  N   LEU P   2      21.171 -15.080 -15.940  1.00 46.17 LIG-0.35  N 
ATOM     12 H    LEU P   2      21.505 -15.873 -15.952  1.00 46.17 LIG 0.16  HD
ATOM     13  C   LEU P   1      21.924 -13.977 -16.049  1.00 46.12 LIG 0.25  C 
ATOM     14 O    LEU P   1      21.450 -12.831 -16.095  1.00 46.29 LIG-0.27  OA
BRANCH 13 15
ATOM     15  CA  LEU P   1      23.458 -14.200 -16.119  1.00 45.93 LIG 0.28  C 
BRANCH 15 16
ATOM     16  N   LEU P   1      24.236 -12.999 -16.563  1.00 46.34 LIG-0.07  N 
ATOM     17 H3   LEU P   1      23.700 -12.445 -17.008  1.00 46.34 LIG 0.28  HD
ATOM     18 H2   LEU P   1      24.903 -13.257 -17.093  1.00 46.34 LIG 0.28  HD
ATOM     19 H1   LEU P   1      24.568 -12.581 -15.851  1.00 46.34 LIG 0.28  HD
ENDBRANCH 15 16
BRANCH 15 20
ATOM     20  CB  LEU P   1      23.990 -14.703 -14.766  1.00 45.65 LIG 0.05  C 
BRANCH 20 21
ATOM     21  CG  LEU P   1      23.235 -15.908 -14.196  1.00 44.28 LIG-0.02  C 
ATOM     22  CD1 LEU P   1      24.170 -17.072 -13.927  1.00 42.49 LIG 0.01  C 
ATOM     23  CD2 LEU P   1      22.473 -15.531 -12.939  1.00 44.08 LIG 0.01  C 
ENDBRANCH 20 21
ENDBRANCH 15 20
ENDBRANCH 13 15
ENDBRANCH 6 11
ENDBRANCH 4 6
ENDBRANCH 1 2
BRANCH 1 24
ATOM     24  CB  PHE P   3      18.994 -17.225 -11.594  1.00 45.09 LIG 0.07  C 
BRANCH 24 25
ATOM     25  CG  PHE P   3      18.385 -18.564 -12.190  1.00 44.37 LIG-0.06  A 
ATOM     26  CD1 PHE P   3      17.007 -18.893 -12.180  1.00 43.10 LIG 0.01  A 
ATOM     27  CE1 PHE P   3      16.540 -20.181 -12.700  1.00 41.01 LIG 0.00  A 
ATOM     28  CZ  PHE P   3      17.462 -21.123 -13.195  1.00 41.66 LIG 0.00  A 
ATOM     29  CE2 PHE P   3      18.808 -20.800 -13.187  1.00 43.89 LIG 0.00  A 
ATOM     30  CD2 PHE P   3      19.260 -19.541 -12.676  1.00 44.25 LIG 0.01  A 
ENDBRANCH 24 25
ENDBRANCH 1 24
BRANCH 1 31
ATOM     31  C   PHE P   3      18.673 -14.602 -11.333  1.00 45.74 LIG 0.26  C 
ATOM     32 N    ASN P   4      17.884 -13.771 -11.905  1.00 46.65 LIG-0.24  NA
ATOM     33 O    PHE P   3      19.541 -14.394 -10.489  1.00 45.60 LIG-0.27  OA
BRANCH 32 34
ATOM     34  CA  ASN P   4      17.637 -12.363 -12.024  1.00 47.05 LIG 0.21  C 
BRANCH 34 35
ATOM     35  CB  ASN P   4      16.448 -12.375 -12.906  1.00 46.83 LIG 0.14  C 
BRANCH 35 36
ATOM     36  CG  ASN P   4      15.222 -12.102 -12.080  1.00 47.32 LIG 0.22  C 
ATOM     37  ND2 ASN P   4      14.954 -12.997 -11.128  1.00 46.99 LIG-0.37  N 
ATOM     38 22HD ASN P   4      15.463 -13.683 -11.026  1.00 46.99 LIG 0.16  HD
ATOM     39 21HD ASN P   4      14.271 -12.888 -10.616  1.00 46.99 LIG 0.16  HD
ATOM     40 OD1  ASN P   4      14.521 -11.116 -12.254  1.00 48.95 LIG-0.27  OA
ENDBRANCH 35 36
ENDBRANCH 34 35
BRANCH 34 41
ATOM     41  C   ASN P   4      17.438 -11.196 -11.141  1.00 47.23 LIG 0.24  C 
ATOM     42  N   ASP P   5      17.997 -10.247 -11.946  1.00 48.41 LIG-0.35  N 
ATOM     43 H    ASP P   5      18.315 -10.530 -12.693  1.00 48.41 LIG 0.16  HD
ATOM     44 O    ASN P   4      16.924 -11.114 -10.036  1.00 47.17 LIG-0.27  OA
BRANCH 42 45
ATOM     45  CA  ASP P   5      18.225  -8.813 -11.906  1.00 49.16 LIG 0.17  C 
BRANCH 45 46
ATOM     46  C   ASP P   5      17.286  -8.104 -10.928  1.00 49.66 LIG 0.22  C 
ATOM     47 O    ASP P   5      17.311  -6.872 -10.819  1.00 50.85 LIG-0.29  OA
ENDBRANCH 45 46
BRANCH 45 48
ATOM     48  CB  ASP P   5      18.053  -8.220 -13.350  1.00 49.44 LIG 0.15  C 
BRANCH 48 49
ATOM     49  CG  ASP P   5      19.053  -8.559 -14.465  1.00 49.12 LIG 0.17  C 
ATOM     50 OD1  ASP P   5      19.117  -7.808 -15.463  1.00 51.19 LIG-0.65  OA
ATOM     51 OD2  ASP P   5      19.764  -9.571 -14.342  1.00 49.06 LIG-0.65  OA
ENDBRANCH 48 49
ENDBRANCH 45 48
ENDBRANCH 42 45
ENDBRANCH 34 41
ENDBRANCH 32 34
ENDBRANCH 1 31
TORSDOF 20
ENDMDL
MODEL 2
USER: ADFR SOLUTION from run 112
USER: SCORE 13.500948 LL:  -3.486 LR: -11.777 RR:   0.000 FEB:  -5.811
USER: RMSD 2.005142
USER: SEED 111
USER: STATUS no improvement in best 2 clusters for 5 generations
USER: GENES 22
USER: genes 0 Translation |==|  0.44645 0.46542 0.57199
USER: genes 1 Rotation |==|  0.45800 0.42616 0.46915 0.99176
USER: genes 2 Torsion [CB]-CA--N-[C] |==|  0.11187
USER: genes 3 Torsion [N]-C--CA-[N] |==|  0.43336
USER: genes 4 Torsion [C]-CA--CB-[CG] |==|  0.25101
USER: genes 5 Torsion [CA]-CB--CG-[CD1] |==|  0.34398
USER: genes 6 Torsion [C]-CA--N-[C] |==|  0.76485
USER: genes 7 Torsion [N]-C--CA-[N] |==|  0.30822
USER: genes 8 Torsion [C]-CA--N-[H3] |==|  0.32899
USER: genes 9 Torsion [C]-CA--CB-[CG] |==|  0.25706
USER: genes 10 Torsion [CA]-CB--CG-[CD1] |==|  0.50906
USER: genes 11 Torsion [N]-CA--CB-[CG] |==|  0.74834
USER: genes 12 Torsion [CA]-CB--CG-[CD1] |==|  0.81290
USER: genes 13 Torsion [N]-CA--C-[N] |==|  0.25826
USER: genes 14 Torsion [C]-N--CA-[C] |==|  0.87765
USER: genes 15 Torsion [N]-CA--CB-[CG] |==|  0.28201
USER: genes 16 Torsion [CA]-CB--CG-[OD1] |==|  0.34097
USER: genes 17 Torsion [N]-CA--C-[N] |==|  0.40787
USER: genes 18 Torsion [C]-N--CA-[C] |==|  0.94184
USER: genes 19 Torsion [N]-CA--C-[O] |==|  0.49723
USER: genes 20 Torsion [N]-CA--CB-[CG] |==|  0.80105
USER: genes 21 Torsion [CA]-CB--CG-[OD1] |==|  0.05700
ROOT
ATOM      1  CA  PHE P   3      18.634 -15.897 -12.130  1.00 45.52 LIG 0.18  C 
ENDROOT
BRANCH 1 2
ATOM      2  N   PHE P   3      19.858 -15.588 -12.971  1.00 45.79 LIG-0.35  N 
ATOM      3 H    PHE P   3      20.085 -14.764 -12.885  1.00 45.79 LIG 0.16  HD
ATOM      4  C   LEU P   2      20.566 -16.396 -13.769  1.00 46.01 LIG 0.24  C 
ATOM      5 O    LEU P   2      20.318 -17.592 -13.851  1.00 46.46 LIG-0.27  OA
BRANCH 4 6
ATOM      6  CA  LEU P   2      21.791 -15.779 -14.573  1.00 45.94 LIG 0.18  C 
BRANCH 6 7
ATOM      7  CB  LEU P   2      21.357 -15.045 -15.870  1.00 45.93 LIG 0.04  C 
BRANCH 7 8
ATOM      8  CG  LEU P   2      21.012 -13.527 -15.879  1.00 45.11 LIG-0.02  C 
ATOM      9  CD1 LEU P   2      21.845 -12.702 -16.887  1.00 44.79 LIG 0.01  C 
ATOM     10  CD2 LEU P   2      19.525 -13.287 -16.126  1.00 44.35 LIG 0.01  C 
ENDBRANCH 7 8
ENDBRANCH 6 7
BRANCH 6 11
ATOM     11  N   LEU P   2      22.750 -16.856 -14.904  1.00 46.17 LIG-0.35  N 
ATOM     12 H    LEU P   2      22.633 -17.183 -15.691  1.00 46.17 LIG 0.16  HD
ATOM     13  C   LEU P   1      23.711 -17.292 -14.076  1.00 46.12 LIG 0.25  C 
ATOM     14 O    LEU P   1      23.930 -16.790 -12.963  1.00 46.29 LIG-0.27  OA
BRANCH 13 15
ATOM     15  CA  LEU P   1      24.560 -18.487 -14.584  1.00 45.93 LIG 0.28  C 
BRANCH 15 16
ATOM     16  N   LEU P   1      25.983 -18.141 -14.902  1.00 46.34 LIG-0.07  N 
ATOM     17 H3   LEU P   1      26.528 -18.609 -14.376  1.00 46.34 LIG 0.28  HD
ATOM     18 H2   LEU P   1      26.114 -17.271 -14.766  1.00 46.34 LIG 0.28  HD
ATOM     19 H1   LEU P   1      26.153 -18.337 -15.753  1.00 46.34 LIG 0.28  HD
ENDBRANCH 15 16
BRANCH 15 20
ATOM     20  CB  LEU P   1      24.513 -19.648 -13.577  1.00 45.65 LIG 0.05  C 
BRANCH 20 21
ATOM     21  CG  LEU P   1      23.411 -20.679 -13.849  1.00 44.28 LIG-0.02  C 
ATOM     22  CD1 LEU P   1      23.375 -21.747 -12.772  1.00 42.49 LIG 0.01  C 
ATOM     23  CD2 LEU P   1      22.057 -20.008 -13.985  1.00 44.08 LIG 0.01  C 
ENDBRANCH 20 21
ENDBRANCH 15 20
ENDBRANCH 13 15
ENDBRANCH 6 11
ENDBRANCH 4 6
ENDBRANCH 1 2
BRANCH 1 24
ATOM     24  CB  PHE P   3      18.561 -17.246 -11.363  1.00 45.09 LIG 0.07  C 
BRANCH 24 25
ATOM     25  CG  PHE P   3      17.894 -18.459 -12.140  1.00 44.37 LIG-0.06  A 
ATOM     26  CD1 PHE P   3      16.523 -18.529 -12.494  1.00 43.10 LIG 0.01  A 
ATOM     27  CE1 PHE P   3      15.981 -19.716 -13.161  1.00 41.01 LIG 0.00  A 
ATOM     28  CZ  PHE P   3      16.813 -20.818 -13.436  1.00 41.66 LIG 0.00  A 
ATOM     29  CE2 PHE P   3      18.147 -20.748 -13.073  1.00 43.89 LIG 0.00  A 
ATOM     30  CD2 PHE P   3      18.673 -19.586 -12.420  1.00 44.25 LIG 0.01  A 
ENDBRANCH 24 25
ENDBRANCH 1 24
BRANCH 1 31
ATOM     31  C   PHE P   3      18.769 -14.600 -11.306  1.00 45.74 LIG 0.26  C 
ATOM     32 N    ASN P   4      18.016 -13.799 -11.965  1.00 46.65 LIG-0.24  NA
ATOM     33 O    PHE P   3      19.511 -14.364 -10.357  1.00 45.60 LIG-0.27  OA
BRANCH 32 34
ATOM     34  CA  ASN P   4      17.716 -12.403 -12.100  1.00 47.05 LIG 0.21  C 
BRANCH 34 35
ATOM     35  CB  ASN P   4      16.521 -12.472 -12.971  1.00 46.83 LIG 0.14  C 
BRANCH 35 36
ATOM     36  CG  ASN P   4      15.290 -12.279 -12.131  1.00 47.32 LIG 0.22  C 
ATOM     37  ND2 ASN P   4      15.142 -13.130 -11.115  1.00 46.99 LIG-0.37  N 
ATOM     38 22HD ASN P   4      15.727 -13.747 -10.982  1.00 46.99 LIG 0.16  HD
ATOM     39 21HD ASN P   4      14.462 -13.062 -10.593  1.00 46.99 LIG 0.16  HD
ATOM     40 OD1  ASN P   4      14.480 -11.390 -12.350  1.00 48.95 LIG-0.27  OA
ENDBRANCH 35 36
ENDBRANCH 34 35
BRANCH 34 41
ATOM     41  C   ASN P   4      17.480 -11.233 -11.231  1.00 47.23 LIG 0.24  C 
ATOM     42  N   ASP P   5      18.018 -10.278 -12.042  1.00 48.41 LIG-0.35  N 
ATOM     43 H    ASP P   5      18.348 -10.560 -12.784  1.00 48.41 LIG 0.16  HD
ATOM     44 O    ASN P   4      16.957 -11.154 -10.130  1.00 47.17 LIG-0.27  OA
BRANCH 42 45
ATOM     45  CA  ASP P   5      18.207  -8.838 -12.017  1.00 49.16 LIG 0.17  C 
BRANCH 45 46
ATOM     46  C   ASP P   5      17.250  -8.145 -11.045  1.00 49.66 LIG 0.22  C 
ATOM     47 O    ASP P   5      17.295  -6.919 -10.891  1.00 50.85 LIG-0.29  OA
ENDBRANCH 45 46
BRANCH 45 48
ATOM     48  CB  ASP P   5      18.018  -8.263 -13.466  1.00 49.44 LIG 0.15  C 
BRANCH 48 49
ATOM     49  CG  ASP P   5      19.070  -8.515 -14.556  1.00 49.12 LIG 0.17  C 
ATOM     50 OD1  ASP P   5      19.861  -9.473 -14.416  1.00 51.19 LIG-0.65  OA
ATOM     51 OD2  ASP P   5      19.104  -7.757 -15.541  1.00 49.06 LIG-0.65  OA
ENDBRANCH 48 49
ENDBRANCH 45 48
ENDBRANCH 42 45
ENDBRANCH 34 41
ENDBRANCH 32 34
ENDBRANCH 1 31
TORSDOF 20
ENDMDL
MODEL 3
USER: ADFR SOLUTION from run 115
USER: SCORE 11.944824 LL:  -3.290 LR: -10.252 RR:   0.000 FEB:  -4.286
USER: RMSD 1.538851
USER: SEED 114
USER: STATUS 1 or 2 clusters left
USER: GENES 22
USER: genes 0 Translation |==|  0.44864 0.46230 0.56877
USER: genes 1 Rotation |==|  0.47207 0.44174 0.49149 0.99573
USER: genes 2 Torsion [CB]-CA--N-[C] |==|  0.10967
USER: genes 3 Torsion [N]-C--CA-[N] |==|  0.46013
USER: genes 4 Torsion [C]-CA--CB-[CG] |==|  0.17378
USER: genes 5 Torsion [CA]-CB--CG-[CD1] |==|  0.39718
USER: genes 6 Torsion [C]-CA--N-[C] |==|  0.63498
USER: genes 7 Torsion [N]-C--CA-[N] |==|  0.04956
USER: genes 8 Torsion [C]-CA--N-[H3] |==|  0.16521
USER: genes 9 Torsion [C]-CA--CB-[CG] |==|  0.29564
USER: genes 10 Torsion [CA]-CB--CG-[CD1] |==|  0.43833
USER: genes 11 Torsion [N]-CA--CB-[CG] |==|  0.72663
USER: genes 12 Torsion [CA]-CB--CG-[CD1] |==|  0.82780
USER: genes 13 Torsion [N]-CA--C-[N] |==|  0.24037
USER: genes 14 Torsion [C]-N--CA-[C] |==|  0.87776
USER: genes 15 Torsion [N]-CA--CB-[CG] |==|  0.31669
USER: genes 16 Torsion [CA]-CB--CG-[OD1] |==|  0.29461
USER: genes 17 Torsion [N]-CA--C-[N] |==|  0.38999
USER: genes 18 Torsion [C]-N--CA-[C] |==|  0.94226
USER: genes 19 Torsion [N]-CA--C-[O] |==|  0.49201
USER: genes 20 Torsion [N]-CA--CB-[CG] |==|  0.85919
USER: genes 21 Torsion [CA]-CB--CG-[OD1] |==|  0.06985
ROOT
ATOM      1  CA  PHE P   3      18.699 -15.991 -12.227  1.00 45.52 LIG 0.18  C 
ENDROOT
BRANCH 1 2
ATOM      2  N   PHE P   3      19.829 -15.532 -13.129  1.00 45.79 LIG-0.35  N 
ATOM      3 H    PHE P   3      19.979 -14.692 -13.024  1.00 45.79 LIG 0.16  HD
ATOM      4  C   LEU P   2      20.559 -16.238 -14.001  1.00 46.01 LIG 0.24  C 
ATOM      5 O    LEU P   2      20.425 -17.449 -14.115  1.00 46.46 LIG-0.27  OA
BRANCH 4 6
ATOM      6  CA  LEU P   2      21.662 -15.474 -14.854  1.00 45.94 LIG 0.18  C 
BRANCH 6 7
ATOM      7  CB  LEU P   2      21.053 -14.553 -15.947  1.00 45.93 LIG 0.04  C 
BRANCH 7 8
ATOM      8  CG  LEU P   2      20.145 -13.341 -15.588  1.00 45.11 LIG-0.02  C 
ATOM      9  CD1 LEU P   2      20.354 -12.111 -16.500  1.00 44.79 LIG 0.01  C 
ATOM     10  CD2 LEU P   2      18.668 -13.726 -15.577  1.00 44.35 LIG 0.01  C 
ENDBRANCH 7 8
ENDBRANCH 6 7
BRANCH 6 11
ATOM     11  N   LEU P   2      22.567 -16.463 -15.480  1.00 46.17 LIG-0.35  N 
ATOM     12 H    LEU P   2      22.149 -17.099 -15.878  1.00 46.17 LIG 0.16  HD
ATOM     13  C   LEU P   1      23.906 -16.392 -15.440  1.00 46.12 LIG 0.25  C 
ATOM     14 O    LEU P   1      24.522 -15.448 -14.922  1.00 46.29 LIG-0.27  OA
BRANCH 13 15
ATOM     15  CA  LEU P   1      24.673 -17.574 -16.089  1.00 45.93 LIG 0.28  C 
BRANCH 15 16
ATOM     16  N   LEU P   1      23.847 -18.406 -17.022  1.00 46.34 LIG-0.07  N 
ATOM     17 H3   LEU P   1      23.539 -17.895 -17.683  1.00 46.34 LIG 0.28  HD
ATOM     18 H2   LEU P   1      23.163 -18.761 -16.578  1.00 46.34 LIG 0.28  HD
ATOM     19 H1   LEU P   1      24.350 -19.058 -17.362  1.00 46.34 LIG 0.28  HD
ENDBRANCH 15 16
BRANCH 15 20
ATOM     20  CB  LEU P   1      25.933 -17.068 -16.808  1.00 45.65 LIG 0.05  C 
BRANCH 20 21
ATOM     21  CG  LEU P   1      27.247 -17.388 -16.087  1.00 44.28 LIG-0.02  C 
ATOM     22  CD1 LEU P   1      28.424 -17.368 -17.043  1.00 42.49 LIG 0.01  C 
ATOM     23  CD2 LEU P   1      27.481 -16.434 -14.929  1.00 44.08 LIG 0.01  C 
ENDBRANCH 20 21
ENDBRANCH 15 20
ENDBRANCH 13 15
ENDBRANCH 6 11
ENDBRANCH 4 6
ENDBRANCH 1 2
BRANCH 1 24
ATOM     24  CB  PHE P   3      18.802 -17.373 -11.525  1.00 45.09 LIG 0.07  C 
BRANCH 24 25
ATOM     25  CG  PHE P   3      18.029 -18.571 -12.222  1.00 44.37 LIG-0.06  A 
ATOM     26  CD1 PHE P   3      16.626 -18.618 -12.414  1.00 43.10 LIG 0.01  A 
ATOM     27  CE1 PHE P   3      15.989 -19.793 -13.016  1.00 41.01 LIG 0.00  A 
ATOM     28  CZ  PHE P   3      16.765 -20.907 -13.388  1.00 41.66 LIG 0.00  A 
ATOM     29  CE2 PHE P   3      18.134 -20.860 -13.184  1.00 43.89 LIG 0.00  A 
ATOM     30  CD2 PHE P   3      18.751 -19.710 -12.593  1.00 44.25 LIG 0.01  A 
ENDBRANCH 24 25
ENDBRANCH 1 24
BRANCH 1 31
ATOM     31  C   PHE P   3      18.774 -14.724 -11.349  1.00 45.74 LIG 0.26  C 
ATOM     32 N    ASN P   4      18.014 -13.920 -11.996  1.00 46.65 LIG-0.24  NA
ATOM     33 O    PHE P   3      19.485 -14.504 -10.372  1.00 45.60 LIG-0.27  OA
BRANCH 32 34
ATOM     34  CA  ASN P   4      17.675 -12.530 -12.083  1.00 47.05 LIG 0.21  C 
BRANCH 34 35
ATOM     35  CB  ASN P   4      16.504 -12.599 -12.987  1.00 46.83 LIG 0.14  C 
BRANCH 35 36
ATOM     36  CG  ASN P   4      15.276 -12.174 -12.231  1.00 47.32 LIG 0.22  C 
ATOM     37  ND2 ASN P   4      14.815 -13.048 -11.336  1.00 46.99 LIG-0.37  N 
ATOM     38 22HD ASN P   4      15.211 -13.804 -11.229  1.00 46.99 LIG 0.16  HD
ATOM     39 21HD ASN P   4      14.121 -12.855 -10.866  1.00 46.99 LIG 0.16  HD
ATOM     40 OD1  ASN P   4      14.739 -11.090 -12.411  1.00 48.95 LIG-0.27  OA
ENDBRANCH 35 36
ENDBRANCH 34 35
BRANCH 34 41
ATOM     41  C   ASN P   4      17.382 -11.402 -11.176  1.00 47.23 LIG 0.24  C 
ATOM     42  N   ASP P   5      18.041 -10.425 -11.862  1.00 48.41 LIG-0.35  N 
ATOM     43 H    ASP P   5      18.443 -10.677 -12.578  1.00 48.41 LIG 0.16  HD
ATOM     44 O    ASN P   4      16.741 -11.365 -10.136  1.00 47.17 LIG-0.27  OA
BRANCH 42 45
ATOM     45  CA  ASP P   5      18.275  -8.998 -11.726  1.00 49.16 LIG 0.17  C 
BRANCH 45 46
ATOM     46  C   ASP P   5      17.241  -8.324 -10.823  1.00 49.66 LIG 0.22  C 
ATOM     47 O    ASP P   5      17.330  -7.118 -10.561  1.00 50.85 LIG-0.29  OA
ENDBRANCH 45 46
BRANCH 45 48
ATOM     48  CB  ASP P   5      18.268  -8.333 -13.149  1.00 49.44 LIG 0.15  C 
BRANCH 48 49
ATOM     49  CG  ASP P   5      19.125  -8.903 -14.289  1.00 49.12 LIG 0.17  C 
ATOM     50 OD1  ASP P   5      19.443 -10.111 -14.253  1.00 51.19 LIG-0.65  OA
ATOM     51 OD2  ASP P   5      19.478  -8.144 -15.208  1.00 49.06 LIG-0.65  OA
ENDBRANCH 48 49
ENDBRANCH 45 48
ENDBRANCH 42 45
ENDBRANCH 34 41
ENDBRANCH 32 34
ENDBRANCH 1 31
TORSDOF 20
ENDMDL
