MODEL 1
USER: ADFR SOLUTION from run 27
USER: SCORE 16.341691 LL:  -2.003 LR: -14.466 RR:   0.000 FEB: -11.483
USER: RMSD 1.164590
USER: SEED 26
USER: STATUS no improvement in best 1 clusters for 5 generations
USER: GENES 12
USER: genes 0 Translation |==|  0.51548 0.53977 0.48512
USER: genes 1 Rotation |==|  0.54261 0.47624 0.52465 0.99700
USER: genes 2 Torsion [C]-CA--N-[C] |==|  0.68335
USER: genes 3 Torsion [N]-C--CA-[N] |==|  0.41862
USER: genes 4 Torsion [N]-C--CA-[N] |==|  0.54219
USER: genes 5 Torsion [C]-CA--N-[H3] |==|  0.17832
USER: genes 6 Torsion [N]-CA--C-[N] |==|  0.40895
USER: genes 7 Torsion [N]-CA--C-[O] |==|  0.40020
USER: genes 8 Torsion [N]-CA--CB-[CG] |==|  0.66568
USER: genes 9 Torsion [CA]-CB--CG-[CD] |==|  0.14132
USER: genes 10 Torsion [CB]-CG--CD-[NE] |==|  0.51293
USER: genes 11 Torsion [CG]-CD--NE-[CZ] |==|  0.60343
ROOT
ATOM      1  CA  ARG B   4      -2.206  14.683  12.544  0.80 38.14 LIG 0.18  C 
ENDROOT
BRANCH 1 2
ATOM      2  N   ARG B   4      -1.217  13.837  13.216  0.80 37.32 LIG-0.35  N 
ATOM      3 H    ARG B   4      -0.420  14.157  13.189  0.80 37.32 LIG 0.16  HD
ATOM      4  C   PRO B   3      -1.510  12.682  13.816  0.80 36.53 LIG 0.24  C 
ATOM      5 O    PRO B   3      -2.652  12.204  13.847  0.80 36.51 LIG-0.27  OA
BRANCH 4 6
ATOM      6  CA  PRO B   3      -0.330  11.944  14.459  0.80 35.73 LIG 0.18  C 
ATOM      7  N   PRO B   3      -0.728  11.133  15.614  0.80 35.22 LIG-0.34  N 
ATOM      8  CD  PRO B   3      -0.796   9.711  15.239  0.80 35.29 LIG 0.13  C 
ATOM      9  C   GLY B   2      -0.959  11.567  16.872  0.80 34.72 LIG 0.25  C 
ATOM     10  CG  PRO B   3      -0.685   9.754  13.724  0.80 35.32 LIG 0.02  C 
ATOM     11  CB  PRO B   3       0.231  10.889  13.512  0.80 35.57 LIG 0.04  C 
ATOM     12 O    GLY B   2      -0.837  12.758  17.210  0.80 34.22 LIG-0.27  OA
BRANCH 9 13
ATOM     13  CA  GLY B   2      -1.367  10.534  17.898  0.80 34.38 LIG 0.33  C 
BRANCH 13 14
ATOM     14  N   GLY B   2      -1.920  11.187  19.083  0.80 34.02 LIG-0.07  N 
ATOM     15 H3   GLY B   2      -2.669  11.615  18.864  0.80 34.02 LIG 0.27  HD
ATOM     16 H1   GLY B   2      -2.099  10.575  19.703  0.80 34.02 LIG 0.27  HD
ATOM     17 H2   GLY B   2      -1.329  11.770  19.404  0.80 34.02 LIG 0.27  HD
ENDBRANCH 13 14
ENDBRANCH 9 13
ENDBRANCH 4 6
ENDBRANCH 1 2
BRANCH 1 18
ATOM     18  C   ARG B   4      -1.857  14.681  11.040  0.80 39.25 LIG 0.24  C 
ATOM     19 O    ARG B   4      -0.680  14.494  10.686  0.80 39.33 LIG-0.27  OA
ATOM     20  N   PRO B   5      -2.874  14.772  10.141  0.80 40.23 LIG-0.34  N 
ATOM     21  CA  PRO B   5      -2.604  14.782   8.694  0.80 40.82 LIG 0.19  C 
ATOM     22  CD  PRO B   5      -4.329  14.716  10.385  0.80 40.52 LIG 0.13  C 
ATOM     23  CB  PRO B   5      -4.009  14.669   8.075  0.80 40.82 LIG 0.04  C 
ATOM     24  CG  PRO B   5      -4.826  14.013   9.148  0.80 40.73 LIG 0.02  C 
BRANCH 21 25
ATOM     25  C   PRO B   5      -1.929  16.097   8.273  0.80 41.28 LIG 0.20  C 
ATOM     26 O    PRO B   5      -1.055  16.065   7.367  0.80 41.33 LIG-0.65  OA
ATOM     27 OXT  PRO B   5      -2.294  17.148   8.862  0.80 41.80 LIG-0.65  OA
ENDBRANCH 21 25
ENDBRANCH 1 18
BRANCH 1 28
ATOM     28  CB  ARG B   4      -2.166  16.115  13.114  0.80 37.56 LIG 0.04  C 
BRANCH 28 29
ATOM     29  CG  ARG B   4      -3.470  16.624  13.740  0.80 36.72 LIG 0.02  C 
BRANCH 29 30
ATOM     30  CD  ARG B   4      -4.032  15.641  14.751  0.80 36.17 LIG 0.14  C 
BRANCH 30 31
ATOM     31  NE  ARG B   4      -5.331  16.046  15.287  0.80 35.68 LIG-0.23  N 
ATOM     32  CZ  ARG B   4      -5.716  15.865  16.550  0.80 35.42 LIG 0.67  C 
ATOM     33  NH2 ARG B   4      -6.932  16.232  16.932  0.80 34.99 LIG-0.23  N 
ATOM     34  NH1 ARG B   4      -4.904  15.291  17.426  0.80 35.13 LIG-0.23  N 
ATOM     35 22HH ARG B   4      -7.181  16.114  17.747  0.80 34.99 LIG 0.17  HD
ATOM     36 21HH ARG B   4      -7.473  16.586  16.365  0.80 34.99 LIG 0.17  HD
ATOM     37 12HH ARG B   4      -5.160  15.177  18.239  0.80 35.13 LIG 0.17  HD
ATOM     38 11HH ARG B   4      -4.122  15.031  17.182  0.80 35.13 LIG 0.17  HD
ATOM     39 HE   ARG B   4      -5.885  16.427  14.751  0.80 35.68 LIG 0.18  HD
ENDBRANCH 30 31
ENDBRANCH 29 30
ENDBRANCH 28 29
ENDBRANCH 1 28
TORSDOF 10
ENDMDL
