MODEL 1
USER: ADFR SOLUTION from run 2
USER: SCORE 13.026647 LL:  -1.592 LR: -12.180 RR:   0.000 FEB:  -7.407
USER: RMSD 1.422144
USER: SEED 209204
USER: STATUS no improvement in best 1 clusters for 5 generations
USER: GENES 18
USER: genes 0 Translation |==|  0.48227 0.45589 0.51290
USER: genes 1 Rotation |==|  0.48472 0.62735 0.50423 0.98325
USER: genes 2 Torsion [N]-C--CA-[N] |==|  0.40226
USER: genes 3 Torsion [C]-CA--CB-[CG2] |==|  0.80404
USER: genes 4 Torsion [CA]-CB--CG1-[CD1] |==|  0.31954
USER: genes 5 Torsion [C]-CA--N-[C] |==|  0.66124
USER: genes 6 Torsion [N]-C--CA-[N] |==|  0.06086
USER: genes 7 Torsion [C]-CA--CB-[CG1] |==|  0.22539
USER: genes 8 Torsion [C]-CA--N-[H2] |==|  0.11594
USER: genes 9 Torsion [C]-N--CA-[CB] |==|  0.64998
USER: genes 10 Torsion [N]-CA--C-[N] |==|  0.65729
USER: genes 11 Torsion [C]-N--CA-[CB] |==|  0.62919
USER: genes 12 Torsion [N]-CA--CB-[CG] |==|  0.88554
USER: genes 13 Torsion [CA]-CB--CG-[CD] |==|  0.57420
USER: genes 14 Torsion [CB]-CG--CD-[CE] |==|  0.23883
USER: genes 15 Torsion [CG]-CD--CE-[NZ] |==|  0.36239
USER: genes 16 Torsion [CD]-CE--NZ-[HZ3] |==|  0.08729
USER: genes 17 Torsion [N]-CA--C-[O] |==|  0.42463
ROOT
ATOM      1  C   ILE P   2       5.218  19.487  -5.293  1.00 41.40 LIG 0.24  C 
ATOM      2 O    ILE P   2       6.113  19.268  -6.125  1.00 41.61 LIG-0.27  OA
ATOM      3  N   ALA P   3       4.336  20.483  -5.351  1.00 41.46 LIG-0.35  N 
ATOM      4 H    ALA P   3       3.710  20.548  -4.765  1.00 41.46 LIG 0.16  HD
ENDROOT
BRANCH 1 5
ATOM      5  CA  ILE P   2       5.024  18.627  -4.049  1.00 41.22 LIG 0.18  C 
BRANCH 5 6
ATOM      6  CB  ILE P   2       5.986  19.231  -3.041  1.00 41.07 LIG 0.01  C 
ATOM      7  CG2 ILE P   2       7.428  18.935  -3.430  1.00 40.92 LIG 0.01  C 
BRANCH 6 8
ATOM      8  CG1 ILE P   2       5.750  20.732  -2.952  1.00 41.09 LIG 0.00  C 
ATOM      9  CD1 ILE P   2       5.242  21.186  -1.603  1.00 41.85 LIG 0.01  C 
ENDBRANCH 6 8
ENDBRANCH 5 6
BRANCH 5 10
ATOM     10  N   ILE P   2       5.257  17.198  -4.103  1.00 40.98 LIG-0.35  N 
ATOM     11  C   VAL P   1       4.203  16.469  -3.761  1.00 40.89 LIG 0.25  C 
ATOM     12 O    VAL P   1       3.098  16.965  -3.550  1.00 40.76 LIG-0.27  OA
ATOM     13 H    ILE P   2       6.035  16.923  -4.344  1.00 40.98 LIG 0.16  HD
BRANCH 11 14
ATOM     14  CA  VAL P   1       4.366  14.954  -3.643  1.00 40.81 LIG 0.28  C 
BRANCH 14 15
ATOM     15  CB  VAL P   1       3.483  14.424  -2.505  1.00 40.75 LIG 0.02  C 
ATOM     16  CG1 VAL P   1       2.048  14.260  -2.974  1.00 40.27 LIG 0.01  C 
ATOM     17  CG2 VAL P   1       4.014  13.097  -1.982  1.00 40.35 LIG 0.01  C 
ENDBRANCH 14 15
BRANCH 14 18
ATOM     18  N   VAL P   1       5.750  14.584  -3.433  1.00 41.10 LIG-0.07  N 
ATOM     19 H1   VAL P   1       6.188  14.621  -4.207  1.00 41.10 LIG 0.28  HD
ATOM     20 H3   VAL P   1       5.790  13.755  -3.110  1.00 41.10 LIG 0.28  HD
ATOM     21 H2   VAL P   1       6.124  15.146  -2.853  1.00 41.10 LIG 0.28  HD
ENDBRANCH 14 18
ENDBRANCH 11 14
ENDBRANCH 5 10
ENDBRANCH 1 5
BRANCH 3 22
ATOM     22  CA  ALA P   3       4.261  21.561  -6.323  1.00 41.49 LIG 0.17  C 
ATOM     23  CB  ALA P   3       4.251  22.885  -5.573  1.00 41.44 LIG 0.04  C 
BRANCH 22 24
ATOM     24  C   ALA P   3       5.314  21.595  -7.409  1.00 41.37 LIG 0.24  C 
ATOM     25 O    ALA P   3       5.506  20.664  -8.193  1.00 41.45 LIG-0.27  OA
ATOM     26  N   LYS P   4       5.993  22.764  -7.434  1.00 41.15 LIG-0.35  N 
ATOM     27 H    LYS P   4       5.758  23.416  -6.925  1.00 41.15 LIG 0.16  HD
BRANCH 26 28
ATOM     28  CA  LYS P   4       7.136  23.119  -8.238  1.00 40.89 LIG 0.16  C 
BRANCH 28 29
ATOM     29  CB  LYS P   4       8.155  23.785  -7.306  1.00 40.64 LIG 0.03  C 
BRANCH 29 30
ATOM     30  CG  LYS P   4       7.527  24.741  -6.301  1.00 49.46 LIG 0.00  C 
BRANCH 30 31
ATOM     31  CD  LYS P   4       8.497  25.827  -5.866  1.00 47.65 LIG 0.03  C 
BRANCH 31 32
ATOM     32  CE  LYS P   4       8.511  27.031  -6.798  1.00 46.32 LIG 0.23  C 
BRANCH 32 33
ATOM     33  NZ  LYS P   4       8.375  28.310  -6.056  1.00 44.97 LIG-0.08  N 
ATOM     34 HZ3  LYS P   4       8.750  28.228  -5.253  1.00 44.97 LIG 0.27  HD
ATOM     35 HZ1  LYS P   4       8.781  28.960  -6.508  1.00 44.97 LIG 0.27  HD
ATOM     36 HZ2  LYS P   4       7.512  28.508  -5.962  1.00 44.97 LIG 0.27  HD
ENDBRANCH 32 33
ENDBRANCH 31 32
ENDBRANCH 30 31
ENDBRANCH 29 30
ENDBRANCH 28 29
BRANCH 28 37
ATOM     37  C   LYS P   4       7.761  21.920  -8.946  1.00 40.96 LIG 0.22  C 
ATOM     38 O    LYS P   4       8.375  22.070 -10.000  1.00 40.89 LIG-0.29  OA
ENDBRANCH 28 37
ENDBRANCH 26 28
ENDBRANCH 22 24
ENDBRANCH 3 22
TORSDOF 16
ENDMDL
MODEL 2
USER: ADFR SOLUTION from run 3
USER: SCORE 13.056747 LL:  -1.971 LR: -11.238 RR:   0.000 FEB:  -6.466
USER: RMSD 1.632175
USER: SEED 154065
USER: STATUS no improvement in best 4 clusters for 5 generations
USER: GENES 18
USER: genes 0 Translation |==|  0.49960 0.52442 0.53597
USER: genes 1 Rotation |==|  0.48082 0.43617 0.50922 0.99545
USER: genes 2 Torsion [N]-C--CA-[N] |==|  0.38406
USER: genes 3 Torsion [C]-CA--CB-[CG2] |==|  0.72010
USER: genes 4 Torsion [CA]-CB--CG1-[CD1] |==|  0.43346
USER: genes 5 Torsion [C]-CA--N-[C] |==|  0.75857
USER: genes 6 Torsion [N]-C--CA-[N] |==|  0.83791
USER: genes 7 Torsion [C]-CA--CB-[CG1] |==|  0.22049
USER: genes 8 Torsion [C]-CA--N-[H2] |==|  0.62243
USER: genes 9 Torsion [C]-N--CA-[CB] |==|  0.80547
USER: genes 10 Torsion [N]-CA--C-[N] |==|  0.44899
USER: genes 11 Torsion [C]-N--CA-[CB] |==|  0.80504
USER: genes 12 Torsion [N]-CA--CB-[CG] |==|  0.92841
USER: genes 13 Torsion [CA]-CB--CG-[CD] |==|  0.70059
USER: genes 14 Torsion [CB]-CG--CD-[CE] |==|  0.26109
USER: genes 15 Torsion [CG]-CD--CE-[NZ] |==|  0.29545
USER: genes 16 Torsion [CD]-CE--NZ-[HZ3] |==|  0.36872
USER: genes 17 Torsion [N]-CA--C-[O] |==|  0.42164
ROOT
ATOM      1  C   ILE P   2       5.738  21.543  -4.601  1.00 41.40 LIG 0.24  C 
ATOM      2 O    ILE P   2       6.967  21.376  -4.571  1.00 41.61 LIG-0.27  OA
ATOM      3  N   ALA P   3       5.104  22.501  -5.275  1.00 41.46 LIG-0.35  N 
ATOM      4 H    ALA P   3       4.244  22.529  -5.292  1.00 41.46 LIG 0.16  HD
ENDROOT
BRANCH 1 5
ATOM      5  CA  ILE P   2       4.769  20.656  -3.827  1.00 41.22 LIG 0.18  C 
BRANCH 5 6
ATOM      6  CB  ILE P   2       4.859  21.183  -2.405  1.00 41.07 LIG 0.01  C 
ATOM      7  CG2 ILE P   2       5.750  20.288  -1.555  1.00 40.92 LIG 0.01  C 
BRANCH 6 8
ATOM      8  CG1 ILE P   2       5.390  22.609  -2.425  1.00 41.09 LIG 0.00  C 
ATOM      9  CD1 ILE P   2       5.000  23.418  -1.211  1.00 41.85 LIG 0.01  C 
ENDBRANCH 6 8
ENDBRANCH 5 6
BRANCH 5 10
ATOM     10  N   ILE P   2       4.957  19.220  -3.794  1.00 40.98 LIG-0.35  N 
ATOM     11  C   VAL P   1       4.391  18.582  -4.810  1.00 40.89 LIG 0.25  C 
ATOM     12 O    VAL P   1       3.875  19.173  -5.756  1.00 40.76 LIG-0.27  OA
ATOM     13 H    ILE P   2       5.406  18.884  -3.143  1.00 40.98 LIG 0.16  HD
BRANCH 11 14
ATOM     14  CA  VAL P   1       4.400  17.054  -4.813  1.00 40.81 LIG 0.28  C 
BRANCH 14 15
ATOM     15  CB  VAL P   1       3.567  16.527  -3.636  1.00 40.75 LIG 0.02  C 
ATOM     16  CG1 VAL P   1       2.085  16.586  -3.964  1.00 40.27 LIG 0.01  C 
ATOM     17  CG2 VAL P   1       3.966  15.101  -3.286  1.00 40.35 LIG 0.01  C 
ENDBRANCH 14 15
BRANCH 14 18
ATOM     18  N   VAL P   1       5.750  16.531  -4.759  1.00 41.10 LIG-0.07  N 
ATOM     19 H1   VAL P   1       5.920  16.232  -3.939  1.00 41.10 LIG 0.28  HD
ATOM     20 H3   VAL P   1       6.327  17.177  -4.965  1.00 41.10 LIG 0.28  HD
ATOM     21 H2   VAL P   1       5.834  15.863  -5.342  1.00 41.10 LIG 0.28  HD
ENDBRANCH 14 18
ENDBRANCH 11 14
ENDBRANCH 5 10
ENDBRANCH 1 5
BRANCH 3 22
ATOM     22  CA  ALA P   3       5.681  23.589  -6.047  1.00 41.49 LIG 0.17  C 
ATOM     23  CB  ALA P   3       6.329  24.571  -5.082  1.00 41.44 LIG 0.04  C 
BRANCH 22 24
ATOM     24  C   ALA P   3       6.660  23.224  -7.141  1.00 41.37 LIG 0.24  C 
ATOM     25 O    ALA P   3       7.216  22.128  -7.211  1.00 41.45 LIG-0.27  OA
ATOM     26  N   LYS P   4       6.830  24.224  -8.037  1.00 41.15 LIG-0.35  N 
ATOM     27 H    LYS P   4       6.348  24.935  -7.993  1.00 41.15 LIG 0.16  HD
BRANCH 26 28
ATOM     28  CA  LYS P   4       7.761  24.293  -9.136  1.00 40.89 LIG 0.16  C 
BRANCH 28 29
ATOM     29  CB  LYS P   4       9.162  24.449  -8.532  1.00 40.64 LIG 0.03  C 
BRANCH 29 30
ATOM     30  CG  LYS P   4       9.162  25.090  -7.151  1.00 49.46 LIG 0.00  C 
BRANCH 30 31
ATOM     31  CD  LYS P   4       9.699  26.512  -7.184  1.00 47.65 LIG 0.03  C 
BRANCH 31 32
ATOM     32  CE  LYS P   4       8.608  27.564  -7.325  1.00 46.32 LIG 0.23  C 
BRANCH 32 33
ATOM     33  NZ  LYS P   4       8.376  28.297  -6.055  1.00 44.97 LIG-0.08  N 
ATOM     34 HZ3  LYS P   4       8.349  29.171  -6.217  1.00 44.97 LIG 0.27  HD
ATOM     35 HZ1  LYS P   4       7.603  28.038  -5.700  1.00 44.97 LIG 0.27  HD
ATOM     36 HZ2  LYS P   4       9.038  28.122  -5.485  1.00 44.97 LIG 0.27  HD
ENDBRANCH 32 33
ENDBRANCH 31 32
ENDBRANCH 30 31
ENDBRANCH 29 30
ENDBRANCH 28 29
BRANCH 28 37
ATOM     37  C   LYS P   4       7.702  23.069 -10.044  1.00 40.96 LIG 0.22  C 
ATOM     38 O    LYS P   4       8.000  23.160 -11.233  1.00 40.89 LIG-0.29  OA
ENDBRANCH 28 37
ENDBRANCH 26 28
ENDBRANCH 22 24
ENDBRANCH 3 22
TORSDOF 16
ENDMDL
MODEL 3
USER: ADFR SOLUTION from run 19
USER: SCORE 11.168106 LL:  -1.798 LR: -10.208 RR:   0.000 FEB:  -5.435
USER: RMSD 1.975053
USER: SEED 18
USER: STATUS no improvement in best 2 clusters for 5 generations
USER: GENES 18
USER: genes 0 Translation |==|  0.49344 0.49261 0.49829
USER: genes 1 Rotation |==|  0.49602 0.49814 0.56443 0.99581
USER: genes 2 Torsion [N]-C--CA-[N] |==|  0.42169
USER: genes 3 Torsion [C]-CA--CB-[CG2] |==|  0.66393
USER: genes 4 Torsion [CA]-CB--CG1-[CD1] |==|  0.36154
USER: genes 5 Torsion [C]-CA--N-[C] |==|  0.73516
USER: genes 6 Torsion [N]-C--CA-[N] |==|  0.18783
USER: genes 7 Torsion [C]-CA--CB-[CG1] |==|  0.21097
USER: genes 8 Torsion [C]-CA--N-[H2] |==|  0.93675
USER: genes 9 Torsion [C]-N--CA-[CB] |==|  0.72515
USER: genes 10 Torsion [N]-CA--C-[N] |==|  0.60228
USER: genes 11 Torsion [C]-N--CA-[CB] |==|  0.70776
USER: genes 12 Torsion [N]-CA--CB-[CG] |==|  0.95947
USER: genes 13 Torsion [CA]-CB--CG-[CD] |==|  0.54067
USER: genes 14 Torsion [CB]-CG--CD-[CE] |==|  0.40996
USER: genes 15 Torsion [CG]-CD--CE-[NZ] |==|  0.76062
USER: genes 16 Torsion [CD]-CE--NZ-[HZ3] |==|  0.07826
USER: genes 17 Torsion [N]-CA--C-[O] |==|  0.30374
ROOT
ATOM      1  C   ILE P   2       5.553  20.588  -5.731  1.00 41.40 LIG 0.24  C 
ATOM      2 O    ILE P   2       6.756  20.693  -6.018  1.00 41.61 LIG-0.27  OA
ATOM      3  N   ALA P   3       4.582  21.385  -6.173  1.00 41.46 LIG-0.35  N 
ATOM      4 H    ALA P   3       3.760  21.225  -5.974  1.00 41.46 LIG 0.16  HD
ENDROOT
BRANCH 1 5
ATOM      5  CA  ILE P   2       5.023  19.513  -4.790  1.00 41.22 LIG 0.18  C 
BRANCH 5 6
ATOM      6  CB  ILE P   2       5.041  20.186  -3.429  1.00 41.07 LIG 0.01  C 
ATOM      7  CG2 ILE P   2       5.920  19.412  -2.458  1.00 40.92 LIG 0.01  C 
BRANCH 6 8
ATOM      8  CG1 ILE P   2       5.533  21.618  -3.579  1.00 41.09 LIG 0.00  C 
ATOM      9  CD1 ILE P   2       4.644  22.639  -2.908  1.00 41.85 LIG 0.01  C 
ENDBRANCH 6 8
ENDBRANCH 5 6
BRANCH 5 10
ATOM     10  N   ILE P   2       5.702  18.238  -4.678  1.00 40.98 LIG-0.35  N 
ATOM     11  C   VAL P   1       5.194  17.289  -5.452  1.00 40.89 LIG 0.25  C 
ATOM     12 O    VAL P   1       4.317  17.514  -6.283  1.00 40.76 LIG-0.27  OA
ATOM     13 H    ILE P   2       6.367  18.179  -4.136  1.00 40.98 LIG 0.16  HD
BRANCH 11 14
ATOM     14  CA  VAL P   1       5.735  15.866  -5.320  1.00 40.81 LIG 0.28  C 
BRANCH 14 15
ATOM     15  CB  VAL P   1       5.208  15.001  -6.473  1.00 40.75 LIG 0.02  C 
ATOM     16  CG1 VAL P   1       5.949  15.318  -7.760  1.00 40.27 LIG 0.01  C 
ATOM     17  CG2 VAL P   1       5.345  13.521  -6.146  1.00 40.35 LIG 0.01  C 
ENDBRANCH 14 15
BRANCH 14 18
ATOM     18  N   VAL P   1       5.386  15.282  -4.041  1.00 41.10 LIG-0.07  N 
ATOM     19 H1   VAL P   1       6.061  14.782  -3.749  1.00 41.10 LIG 0.28  HD
ATOM     20 H3   VAL P   1       4.660  14.776  -4.134  1.00 41.10 LIG 0.28  HD
ATOM     21 H2   VAL P   1       5.221  15.931  -3.453  1.00 41.10 LIG 0.28  HD
ENDBRANCH 14 18
ENDBRANCH 11 14
ENDBRANCH 5 10
ENDBRANCH 1 5
BRANCH 3 22
ATOM     22  CA  ALA P   3       4.701  22.572  -7.003  1.00 41.49 LIG 0.17  C 
ATOM     23  CB  ALA P   3       4.645  23.796  -6.101  1.00 41.44 LIG 0.04  C 
BRANCH 22 24
ATOM     24  C   ALA P   3       5.902  22.664  -7.919  1.00 41.37 LIG 0.24  C 
ATOM     25 O    ALA P   3       6.368  21.696  -8.520  1.00 41.45 LIG-0.27  OA
ATOM     26  N   LYS P   4       6.380  23.926  -8.018  1.00 41.15 LIG-0.35  N 
ATOM     27 H    LYS P   4       5.961  24.581  -7.651  1.00 41.15 LIG 0.16  HD
BRANCH 26 28
ATOM     28  CA  LYS P   4       7.570  24.382  -8.693  1.00 40.89 LIG 0.16  C 
BRANCH 28 29
ATOM     29  CB  LYS P   4       8.610  24.696  -7.611  1.00 40.64 LIG 0.03  C 
BRANCH 29 30
ATOM     30  CG  LYS P   4       8.022  24.791  -6.210  1.00 49.46 LIG 0.00  C 
BRANCH 30 31
ATOM     31  CD  LYS P   4       8.985  25.443  -5.231  1.00 47.65 LIG 0.03  C 
BRANCH 31 32
ATOM     32  CE  LYS P   4       8.285  26.248  -4.145  1.00 46.32 LIG 0.23  C 
BRANCH 32 33
ATOM     33  NZ  LYS P   4       8.000  27.639  -4.581  1.00 44.97 LIG-0.08  N 
ATOM     34 HZ3  LYS P   4       7.901  27.658  -5.465  1.00 44.97 LIG 0.27  HD
ATOM     35 HZ1  LYS P   4       7.252  27.924  -4.193  1.00 44.97 LIG 0.27  HD
ATOM     36 HZ2  LYS P   4       8.677  28.168  -4.347  1.00 44.97 LIG 0.27  HD
ENDBRANCH 32 33
ENDBRANCH 31 32
ENDBRANCH 30 31
ENDBRANCH 29 30
ENDBRANCH 28 29
BRANCH 28 37
ATOM     37  C   LYS P   4       8.120  23.361  -9.684  1.00 40.96 LIG 0.22  C 
ATOM     38 O    LYS P   4       8.043  23.564 -10.894  1.00 40.89 LIG-0.29  OA
ENDBRANCH 28 37
ENDBRANCH 26 28
ENDBRANCH 22 24
ENDBRANCH 3 22
TORSDOF 16
ENDMDL
