MODEL 1
USER: ADFR SOLUTION from run 111
USER: SCORE 18.053999 LL:  -2.568 LR: -15.650 RR:   0.000 FEB:  -8.491
USER: RMSD 1.255694
USER: SEED 110
USER: STATUS 1 or 2 clusters left
USER: GENES 26
USER: genes 0 Translation |==|  0.44159 0.46396 0.56170
USER: genes 1 Rotation |==|  0.48935 0.47620 0.49305 0.99927
USER: genes 2 Torsion [N]-CA--C-[N] |==|  0.94827
USER: genes 3 Torsion [C]-N--CA-[C] |==|  0.72842
USER: genes 4 Torsion [N]-CA--C-[N] |==|  0.39846
USER: genes 5 Torsion [C]-N--CA-[C] |==|  0.75261
USER: genes 6 Torsion [N]-CA--C-[O] |==|  0.90921
USER: genes 7 Torsion [N]-CA--CB-[CG] |==|  0.22890
USER: genes 8 Torsion [CA]-CB--CG-[CD] |==|  0.54220
USER: genes 9 Torsion [CB]-CG--CD-[OE1] |==|  0.65269
USER: genes 10 Torsion [N]-CA--CB-[CG] |==|  0.92894
USER: genes 11 Torsion [CA]-CB--CG-[CD] |==|  0.39881
USER: genes 12 Torsion [CB]-CG--CD-[CE] |==|  0.39916
USER: genes 13 Torsion [CG]-CD--CE-[NZ] |==|  0.37750
USER: genes 14 Torsion [CD]-CE--NZ-[HZ3] |==|  0.16435
USER: genes 15 Torsion [C]-CA--CB-[CG2] |==|  0.48281
USER: genes 16 Torsion [CA]-CB--OG1-[HG1] |==|  0.39240
USER: genes 17 Torsion [C]-CA--N-[C] |==|  0.82412
USER: genes 18 Torsion [N]-C--CA-[N] |==|  0.90691
USER: genes 19 Torsion [C]-CA--N-[C] |==|  0.84028
USER: genes 20 Torsion [N]-C--CA-[N] |==|  0.37122
USER: genes 21 Torsion [C]-CA--N-[H1] |==|  0.71316
USER: genes 22 Torsion [C]-CA--CB-[CG] |==|  0.17572
USER: genes 23 Torsion [CA]-CB--CG-[CD] |==|  0.42930
USER: genes 24 Torsion [CB]-CG--CD-[NE] |==|  0.71553
USER: genes 25 Torsion [CG]-CD--NE-[HE] |==|  0.81945
ROOT
ATOM      1  CA  THR D   3      16.248 -17.921  18.361  1.00 16.13 LIG 0.20  C 
ENDROOT
BRANCH 1 2
ATOM      2  C   THR D   3      16.156 -17.955  16.827  1.00 16.95 LIG 0.24  C 
ATOM      3 O    THR D   3      15.324 -18.679  16.272  1.00 16.12 LIG-0.27  OA
ATOM      4  N   LYS D   4      17.013 -17.170  16.166  1.00 18.15 LIG-0.35  N 
ATOM      5 H    LYS D   4      17.559 -16.641  16.566  1.00 18.15 LIG 0.16  HD
BRANCH 4 6
ATOM      6  CA  LYS D   4      17.123 -17.120  14.700  1.00 19.65 LIG 0.18  C 
BRANCH 6 7
ATOM      7  C   LYS D   4      18.271 -17.998  14.246  1.00 20.62 LIG 0.24  C 
ATOM      8  N   GLN D   5      18.098 -18.662  13.107  1.00 21.55 LIG-0.35  N 
ATOM      9 H    GLN D   5      17.386 -18.618  12.626  1.00 21.55 LIG 0.16  HD
ATOM     10 O    LYS D   4      19.306 -18.062  14.916  1.00 20.86 LIG-0.27  OA
BRANCH 8 11
ATOM     11  CA  GLN D   5      19.141 -19.546  12.571  1.00 22.83 LIG 0.16  C 
BRANCH 11 12
ATOM     12  C   GLN D   5      20.118 -18.803  11.661  1.00 22.91 LIG 0.22  C 
ATOM     13 O    GLN D   5      19.745 -17.856  10.966  1.00 23.29 LIG-0.29  OA
ENDBRANCH 11 12
BRANCH 11 14
ATOM     14  CB  GLN D   5      18.527 -20.740  11.835  1.00 22.86 LIG 0.04  C 
BRANCH 14 15
ATOM     15  CG  GLN D   5      18.114 -20.453  10.402  1.00 24.40 LIG 0.10  C 
BRANCH 15 16
ATOM     16  CD  GLN D   5      17.193 -21.511   9.823  1.00 24.21 LIG 0.21  C 
ATOM     17  NE2 GLN D   5      16.078 -21.765  10.510  1.00 25.13 LIG-0.37  N 
ATOM     18 22HE GLN D   5      15.520 -22.352  10.222  1.00 25.13 LIG 0.16  HD
ATOM     19 21HE GLN D   5      15.917 -21.340  11.240  1.00 25.13 LIG 0.16  HD
ATOM     20 OE1  GLN D   5      17.474 -22.091   8.767  1.00 25.71 LIG-0.27  OA
ENDBRANCH 15 16
ENDBRANCH 14 15
ENDBRANCH 11 14
ENDBRANCH 8 11
ENDBRANCH 6 7
BRANCH 6 21
ATOM     21  CB  LYS D   4      17.423 -15.697  14.220  1.00 19.73 LIG 0.04  C 
BRANCH 21 22
ATOM     22  CG  LYS D   4      16.972 -14.587  15.130  1.00 20.49 LIG 0.00  C 
BRANCH 22 23
ATOM     23  CD  LYS D   4      17.988 -13.457  15.097  1.00 20.73 LIG 0.03  C 
BRANCH 23 24
ATOM     24  CE  LYS D   4      17.300 -12.117  15.190  1.00 20.46 LIG 0.23  C 
BRANCH 24 25
ATOM     25  NZ  LYS D   4      18.000 -11.216  16.135  1.00 20.02 LIG-0.08  N 
ATOM     26 HZ3  LYS D   4      18.839 -11.095  15.864  1.00 20.02 LIG 0.27  HD
ATOM     27 HZ1  LYS D   4      17.582 -10.431  16.162  1.00 20.02 LIG 0.27  HD
ATOM     28 HZ2  LYS D   4      18.000 -11.579  16.948  1.00 20.02 LIG 0.27  HD
ENDBRANCH 24 25
ENDBRANCH 23 24
ENDBRANCH 22 23
ENDBRANCH 21 22
ENDBRANCH 6 21
ENDBRANCH 4 6
ENDBRANCH 1 2
BRANCH 1 29
ATOM     29  CB  THR D   3      15.037 -17.166  18.944  1.00 15.86 LIG 0.15  C 
ATOM     30  CG2 THR D   3      15.031 -17.254  20.467  1.00 16.15 LIG 0.04  C 
BRANCH 29 31
ATOM     31 OG1  THR D   3      15.099 -15.788  18.557  1.00 16.19 LIG-0.39  OA
ATOM     32 HG1  THR D   3      14.326 -15.511  18.380  1.00 16.19 LIG 0.21  HD
ENDBRANCH 29 31
ENDBRANCH 1 29
BRANCH 1 33
ATOM     33  N   THR D   3      17.515 -17.382  18.877  1.00 15.75 LIG-0.34  N 
ATOM     34  C   ARG D   2      18.685 -17.980  18.646  1.00 15.31 LIG 0.24  C 
ATOM     35 O    ARG D   2      18.799 -18.983  17.944  1.00 15.17 LIG-0.27  OA
ATOM     36 H    THR D   3      17.431 -16.657  19.333  1.00 15.75 LIG 0.16  HD
BRANCH 34 37
ATOM     37  CA  ARG D   2      19.913 -17.365  19.319  1.00 15.15 LIG 0.18  C 
BRANCH 37 38
ATOM     38  N   ARG D   2      19.816 -15.906  19.437  1.00 15.89 LIG-0.35  N 
ATOM     39  C   ALA D   1      19.643 -15.077  18.406  1.00 16.91 LIG 0.25  C 
ATOM     40 O    ALA D   1      19.672 -15.441  17.223  1.00 17.32 LIG-0.27  OA
ATOM     41 H    ARG D   2      19.882 -15.628  20.248  1.00 15.89 LIG 0.16  HD
BRANCH 39 42
ATOM     42  CA  ALA D   1      19.417 -13.606  18.760  1.00 17.08 LIG 0.27  C 
ATOM     43  CB  ALA D   1      17.926 -13.229  18.613  1.00 17.48 LIG 0.05  C 
BRANCH 42 44
ATOM     44  N   ALA D   1      20.264 -12.715  17.913  1.00 17.36 LIG-0.07  N 
ATOM     45 H3   ALA D   1      19.781 -12.019  17.640  1.00 17.36 LIG 0.28  HD
ATOM     46 H2   ALA D   1      20.558 -13.169  17.206  1.00 17.36 LIG 0.28  HD
ATOM     47 H1   ALA D   1      20.958 -12.425  18.389  1.00 17.36 LIG 0.28  HD
ENDBRANCH 42 44
ENDBRANCH 39 42
ENDBRANCH 37 38
BRANCH 37 48
ATOM     48  CB  ARG D   2      20.080 -17.958  20.726  1.00 15.08 LIG 0.04  C 
BRANCH 48 49
ATOM     49  CG  ARG D   2      20.350 -19.453  20.823  1.00 14.63 LIG 0.02  C 
BRANCH 49 50
ATOM     50  CD  ARG D   2      21.093 -19.785  22.124  1.00 13.91 LIG 0.14  C 
BRANCH 50 51
ATOM     51  NE  ARG D   2      22.521 -20.016  21.902  1.00 10.79 LIG-0.23  N 
ATOM     52 HE   ARG D   2      22.748 -20.697  21.427  1.00 10.79 LIG 0.18  HD
ATOM     53  CZ  ARG D   2      23.493 -19.244  22.388  1.00 10.30 LIG 0.67  C 
ATOM     54  NH2 ARG D   2      23.202 -18.169  23.120  1.00  9.50 LIG-0.23  N 
ATOM     55  NH1 ARG D   2      24.759 -19.550  22.142  1.00  9.44 LIG-0.23  N 
ATOM     56 22HH ARG D   2      23.834 -17.676  23.430  1.00  9.50 LIG 0.17  HD
ATOM     57 21HH ARG D   2      22.381 -17.969  23.283  1.00  9.50 LIG 0.17  HD
ATOM     58 11HH ARG D   2      24.950 -20.243  21.671  1.00  9.44 LIG 0.17  HD
ATOM     59 12HH ARG D   2      25.389 -19.054  22.453  1.00  9.44 LIG 0.17  HD
ENDBRANCH 50 51
ENDBRANCH 49 50
ENDBRANCH 48 49
ENDBRANCH 37 48
ENDBRANCH 34 37
ENDBRANCH 1 33
TORSDOF 24
ENDMDL
MODEL 2
USER: ADFR SOLUTION from run 93
USER: SCORE 17.147754 LL:  -3.328 LR: -13.940 RR:   0.000 FEB:  -6.781
USER: RMSD 1.948122
USER: SEED 92
USER: STATUS 1 or 2 clusters left
USER: GENES 26
USER: genes 0 Translation |==|  0.44351 0.46217 0.56540
USER: genes 1 Rotation |==|  0.45832 0.48383 0.49305 0.99795
USER: genes 2 Torsion [N]-CA--C-[N] |==|  0.93673
USER: genes 3 Torsion [C]-N--CA-[C] |==|  0.71917
USER: genes 4 Torsion [N]-CA--C-[N] |==|  0.43371
USER: genes 5 Torsion [C]-N--CA-[C] |==|  0.76581
USER: genes 6 Torsion [N]-CA--C-[O] |==|  0.05896
USER: genes 7 Torsion [N]-CA--CB-[CG] |==|  0.15055
USER: genes 8 Torsion [CA]-CB--CG-[CD] |==|  0.55473
USER: genes 9 Torsion [CB]-CG--CD-[OE1] |==|  0.73071
USER: genes 10 Torsion [N]-CA--CB-[CG] |==|  0.54319
USER: genes 11 Torsion [CA]-CB--CG-[CD] |==|  0.10458
USER: genes 12 Torsion [CB]-CG--CD-[CE] |==|  0.58083
USER: genes 13 Torsion [CG]-CD--CE-[NZ] |==|  0.40100
USER: genes 14 Torsion [CD]-CE--NZ-[HZ3] |==|  0.49177
USER: genes 15 Torsion [C]-CA--CB-[CG2] |==|  0.45337
USER: genes 16 Torsion [CA]-CB--OG1-[HG1] |==|  0.37721
USER: genes 17 Torsion [C]-CA--N-[C] |==|  0.81111
USER: genes 18 Torsion [N]-C--CA-[N] |==|  0.94265
USER: genes 19 Torsion [C]-CA--N-[C] |==|  0.82764
USER: genes 20 Torsion [N]-C--CA-[N] |==|  0.40334
USER: genes 21 Torsion [C]-CA--N-[H1] |==|  0.71380
USER: genes 22 Torsion [C]-CA--CB-[CG] |==|  0.13353
USER: genes 23 Torsion [CA]-CB--CG-[CD] |==|  0.45203
USER: genes 24 Torsion [CB]-CG--CD-[NE] |==|  0.74919
USER: genes 25 Torsion [CG]-CD--NE-[HE] |==|  0.81027
ROOT
ATOM      1  CA  THR D   3      16.305 -17.975  18.472  1.00 16.13 LIG 0.20  C 
ENDROOT
BRANCH 1 2
ATOM      2  C   THR D   3      16.164 -18.197  16.958  1.00 16.95 LIG 0.24  C 
ATOM      3 O    THR D   3      15.364 -19.033  16.526  1.00 16.12 LIG-0.27  OA
ATOM      4  N   LYS D   4      16.943 -17.444  16.175  1.00 18.15 LIG-0.35  N 
ATOM      5 H    LYS D   4      17.465 -16.837  16.487  1.00 18.15 LIG 0.16  HD
BRANCH 4 6
ATOM      6  CA  LYS D   4      17.000 -17.562  14.709  1.00 19.65 LIG 0.18  C 
BRANCH 6 7
ATOM      7  C   LYS D   4      18.233 -18.344  14.310  1.00 20.62 LIG 0.24  C 
ATOM      8  N   GLN D   5      18.195 -18.954  13.128  1.00 21.55 LIG-0.35  N 
ATOM      9 H    GLN D   5      17.523 -18.925  12.592  1.00 21.55 LIG 0.16  HD
ATOM     10 O    LYS D   4      19.213 -18.384  15.060  1.00 20.86 LIG-0.27  OA
BRANCH 8 11
ATOM     11  CA  GLN D   5      19.332 -19.744  12.638  1.00 22.83 LIG 0.16  C 
BRANCH 11 12
ATOM     12  C   GLN D   5      20.386 -18.876  11.952  1.00 22.91 LIG 0.22  C 
ATOM     13 O    GLN D   5      20.459 -17.667  12.175  1.00 23.29 LIG-0.29  OA
ENDBRANCH 11 12
BRANCH 11 14
ATOM     14  CB  GLN D   5      18.864 -20.858  11.698  1.00 22.86 LIG 0.04  C 
BRANCH 14 15
ATOM     15  CG  GLN D   5      18.010 -20.386  10.535  1.00 24.40 LIG 0.10  C 
BRANCH 15 16
ATOM     16  CD  GLN D   5      17.183 -21.496   9.912  1.00 24.21 LIG 0.21  C 
ATOM     17  NE2 GLN D   5      16.024 -21.777  10.510  1.00 25.13 LIG-0.37  N 
ATOM     18 22HE GLN D   5      15.516 -22.394  10.194  1.00 25.13 LIG 0.16  HD
ATOM     19 21HE GLN D   5      15.785 -21.340  11.212  1.00 25.13 LIG 0.16  HD
ATOM     20 OE1  GLN D   5      17.575 -22.091   8.902  1.00 25.71 LIG-0.27  OA
ENDBRANCH 15 16
ENDBRANCH 14 15
ENDBRANCH 11 14
ENDBRANCH 8 11
ENDBRANCH 6 7
BRANCH 6 21
ATOM     21  CB  LYS D   4      17.103 -16.183  14.051  1.00 19.73 LIG 0.04  C 
BRANCH 21 22
ATOM     22  CG  LYS D   4      16.806 -16.134  12.577  1.00 20.49 LIG 0.00  C 
BRANCH 22 23
ATOM     23  CD  LYS D   4      15.667 -17.088  12.255  1.00 20.73 LIG 0.03  C 
BRANCH 23 24
ATOM     24  CE  LYS D   4      15.790 -17.609  10.843  1.00 20.46 LIG 0.23  C 
BRANCH 24 25
ATOM     25  NZ  LYS D   4      15.341 -19.019  10.749  1.00 20.02 LIG-0.08  N 
ATOM     26 HZ3  LYS D   4      15.383 -19.288   9.901  1.00 20.02 LIG 0.27  HD
ATOM     27 HZ1  LYS D   4      15.869 -19.532  11.249  1.00 20.02 LIG 0.27  HD
ATOM     28 HZ2  LYS D   4      14.502 -19.083  11.039  1.00 20.02 LIG 0.27  HD
ENDBRANCH 24 25
ENDBRANCH 23 24
ENDBRANCH 22 23
ENDBRANCH 21 22
ENDBRANCH 6 21
ENDBRANCH 4 6
ENDBRANCH 1 2
BRANCH 1 29
ATOM     29  CB  THR D   3      15.118 -17.144  18.995  1.00 15.86 LIG 0.15  C 
ATOM     30  CG2 THR D   3      15.007 -17.258  20.513  1.00 16.15 LIG 0.04  C 
BRANCH 29 31
ATOM     31 OG1  THR D   3      15.304 -15.767  18.644  1.00 16.19 LIG-0.39  OA
ATOM     32 HG1  THR D   3      14.582 -15.451  18.354  1.00 16.19 LIG 0.21  HD
ENDBRANCH 29 31
ENDBRANCH 1 29
BRANCH 1 33
ATOM     33  N   THR D   3      17.591 -17.387  18.877  1.00 15.75 LIG-0.34  N 
ATOM     34  C   ARG D   2      18.740 -18.056  18.770  1.00 15.31 LIG 0.24  C 
ATOM     35 O    ARG D   2      18.819 -19.179  18.275  1.00 15.17 LIG-0.27  OA
ATOM     36 H    THR D   3      17.532 -16.586  19.184  1.00 15.75 LIG 0.16  HD
BRANCH 34 37
ATOM     37  CA  ARG D   2      19.990 -17.362  19.314  1.00 15.15 LIG 0.18  C 
BRANCH 37 38
ATOM     38  N   ARG D   2      19.821 -15.910  19.426  1.00 15.89 LIG-0.35  N 
ATOM     39  C   ALA D   1      19.587 -15.096  18.394  1.00 16.91 LIG 0.25  C 
ATOM     40 O    ALA D   1      19.613 -15.465  17.213  1.00 17.32 LIG-0.27  OA
ATOM     41 H    ARG D   2      19.886 -15.624  20.235  1.00 15.89 LIG 0.16  HD
BRANCH 39 42
ATOM     42  CA  ALA D   1      19.293 -13.637  18.746  1.00 17.08 LIG 0.27  C 
ATOM     43  CB  ALA D   1      17.773 -13.407  18.907  1.00 17.48 LIG 0.05  C 
BRANCH 42 44
ATOM     44  N   ALA D   1      19.850 -12.714  17.714  1.00 17.36 LIG-0.07  N 
ATOM     45 H3   ALA D   1      19.255 -12.078  17.531  1.00 17.36 LIG 0.28  HD
ATOM     46 H2   ALA D   1      20.033 -13.173  16.973  1.00 17.36 LIG 0.28  HD
ATOM     47 H1   ALA D   1      20.598 -12.340  18.021  1.00 17.36 LIG 0.28  HD
ENDBRANCH 42 44
ENDBRANCH 39 42
ENDBRANCH 37 38
BRANCH 37 48
ATOM     48  CB  ARG D   2      20.325 -17.923  20.704  1.00 15.08 LIG 0.04  C 
BRANCH 48 49
ATOM     49  CG  ARG D   2      20.341 -19.438  20.858  1.00 14.63 LIG 0.02  C 
BRANCH 49 50
ATOM     50  CD  ARG D   2      21.090 -19.844  22.133  1.00 13.91 LIG 0.14  C 
BRANCH 50 51
ATOM     51  NE  ARG D   2      22.517 -20.056  21.893  1.00 10.79 LIG-0.23  N 
ATOM     52 HE   ARG D   2      22.748 -20.731  21.413  1.00 10.79 LIG 0.18  HD
ATOM     53  CZ  ARG D   2      23.485 -19.273  22.370  1.00 10.30 LIG 0.67  C 
ATOM     54  NH2 ARG D   2      23.188 -18.205  23.111  1.00  9.50 LIG-0.23  N 
ATOM     55  NH1 ARG D   2      24.752 -19.561  22.108  1.00  9.44 LIG-0.23  N 
ATOM     56 22HH ARG D   2      23.818 -17.705  23.415  1.00  9.50 LIG 0.17  HD
ATOM     57 21HH ARG D   2      22.367 -18.016  23.284  1.00  9.50 LIG 0.17  HD
ATOM     58 11HH ARG D   2      24.946 -20.250  21.632  1.00  9.44 LIG 0.17  HD
ATOM     59 12HH ARG D   2      25.379 -19.058  22.414  1.00  9.44 LIG 0.17  HD
ENDBRANCH 50 51
ENDBRANCH 49 50
ENDBRANCH 48 49
ENDBRANCH 37 48
ENDBRANCH 34 37
ENDBRANCH 1 33
TORSDOF 24
ENDMDL
