MODEL 1
USER: ADFR SOLUTION from run 110
USER: SCORE 15.063495 LL:  -4.241 LR: -13.498 RR:   0.000 FEB:  -7.831
USER: RMSD 0.868508
USER: SEED 109
USER: STATUS 1 or 2 clusters left
USER: GENES 21
USER: genes 0 Translation |==|  0.46350 0.52188 0.45758
USER: genes 1 Rotation |==|  0.47771 0.50201 0.48896 0.99938
USER: genes 2 Torsion [CB]-CA--N-[C] |==|  0.38432
USER: genes 3 Torsion [N]-C--CA-[N] |==|  0.41566
USER: genes 4 Torsion [C]-CA--CB-[CG] |==|  0.15327
USER: genes 5 Torsion [CA]-CB--CG-[OD1] |==|  0.12581
USER: genes 6 Torsion [C]-CA--N-[C] |==|  0.81664
USER: genes 7 Torsion [N]-C--CA-[N] |==|  0.16813
USER: genes 8 Torsion [C]-CA--CB-[CG] |==|  0.23060
USER: genes 9 Torsion [CA]-CB--CG-[OD1] |==|  0.64557
USER: genes 10 Torsion [C]-CA--N-[H3] |==|  0.05671
USER: genes 11 Torsion [N]-CA--C-[N] |==|  0.96111
USER: genes 12 Torsion [C]-N--CA-[CB] |==|  0.34639
USER: genes 13 Torsion [N]-CA--CB-[CG] |==|  0.82064
USER: genes 14 Torsion [CA]-CB--CG-[CD2] |==|  0.77345
USER: genes 15 Torsion [CE1]-CZ--OH-[HH] |==|  0.45714
USER: genes 16 Torsion [N]-CA--C-[N] |==|  0.89758
USER: genes 17 Torsion [C]-N--CA-[C] |==|  0.72329
USER: genes 18 Torsion [N]-CA--C-[OXT] |==|  0.57278
USER: genes 19 Torsion [N]-CA--CB-[CG] |==|  0.74422
USER: genes 20 Torsion [CA]-CB--CG-[CD1] |==|  0.55847
ROOT
ATOM      1  CA  LEU B 804      48.845  52.926  20.577  1.00 31.72 LIG 0.18  C 
ENDROOT
BRANCH 1 2
ATOM      2  N   LEU B 804      49.924  52.421  21.436  1.00 32.47 LIG-0.35  N 
ATOM      3 H    LEU B 804      49.731  51.682  21.831  1.00 32.47 LIG 0.16  HD
ATOM      4  C   ASP B 803      51.091  53.042  21.592  1.00 36.20 LIG 0.24  C 
ATOM      5 O    ASP B 803      51.374  54.147  21.093  1.00 34.88 LIG-0.27  OA
BRANCH 4 6
ATOM      6  CA  ASP B 803      52.109  52.280  22.455  1.00 38.58 LIG 0.19  C 
BRANCH 6 7
ATOM      7  CB  ASP B 803      51.864  52.539  23.934  1.00 39.00 LIG 0.15  C 
BRANCH 7 8
ATOM      8  CG  ASP B 803      50.425  52.201  24.337  1.00 41.67 LIG 0.17  C 
ATOM      9 OD1  ASP B 803      49.932  51.112  23.919  1.00 44.54 LIG-0.65  OA
ATOM     10 OD2  ASP B 803      49.785  53.038  25.025  1.00 44.60 LIG-0.65  OA
ENDBRANCH 7 8
ENDBRANCH 6 7
BRANCH 6 11
ATOM     11  N   ASP B 803      53.467  52.581  22.030  1.00 40.89 LIG-0.34  N 
ATOM     12 H    ASP B 803      53.948  53.010  22.600  1.00 40.89 LIG 0.16  HD
ATOM     13  C   ASP B 802      53.872  52.188  20.822  1.00 43.36 LIG 0.25  C 
ATOM     14 O    ASP B 802      53.124  51.586  20.036  1.00 44.71 LIG-0.27  OA
BRANCH 13 15
ATOM     15  CA  ASP B 802      55.324  52.475  20.432  1.00 44.06 LIG 0.28  C 
BRANCH 15 16
ATOM     16  CB  ASP B 802      55.610  51.992  19.006  1.00 45.52 LIG 0.15  C 
BRANCH 16 17
ATOM     17  CG  ASP B 802      55.179  52.998  17.943  1.00 48.04 LIG 0.17  C 
ATOM     18 OD1  ASP B 802      54.433  52.639  16.991  1.00 55.65 LIG-0.65  OA
ATOM     19 OD2  ASP B 802      55.594  54.169  18.070  1.00 54.24 LIG-0.65  OA
ENDBRANCH 16 17
ENDBRANCH 15 16
BRANCH 15 20
ATOM     20  N   ASP B 802      56.235  51.788  21.382  1.00 45.51 LIG-0.07  N 
ATOM     21 H3   ASP B 802      55.796  51.130  21.789  1.00 45.51 LIG 0.28  HD
ATOM     22 H1   ASP B 802      56.929  51.452  20.938  1.00 45.51 LIG 0.28  HD
ATOM     23 H2   ASP B 802      56.525  52.371  21.989  1.00 45.51 LIG 0.28  HD
ENDBRANCH 15 20
ENDBRANCH 13 15
ENDBRANCH 6 11
ENDBRANCH 4 6
ENDBRANCH 1 2
BRANCH 1 24
ATOM     24  C   LEU B 804      47.730  53.665  21.333  1.00 30.12 LIG 0.24  C 
ATOM     25  N   TYR B 805      47.693  53.530  22.656  1.00 29.37 LIG-0.35  N 
ATOM     26 H    TYR B 805      48.337  53.201  23.121  1.00 29.37 LIG 0.16  HD
ATOM     27 O    LEU B 804      46.943  54.358  20.726  1.00 28.94 LIG-0.27  OA
BRANCH 25 28
ATOM     28  CA  TYR B 805      46.527  53.939  23.445  1.00 29.00 LIG 0.18  C 
BRANCH 28 29
ATOM     29  CB  TYR B 805      46.033  52.750  24.287  1.00 27.91 LIG 0.07  C 
BRANCH 29 30
ATOM     30  CG  TYR B 805      45.549  51.672  23.343  1.00 26.10 LIG-0.06  A 
ATOM     31  CD1 TYR B 805      46.398  50.672  22.903  1.00 25.09 LIG 0.01  A 
ATOM     32  CE1 TYR B 805      45.991  49.729  21.979  1.00 24.79 LIG 0.04  A 
ATOM     33  CZ  TYR B 805      44.745  49.818  21.433  1.00 22.85 LIG 0.07  A 
ATOM     34  CE2 TYR B 805      43.870  50.807  21.853  1.00 24.72 LIG 0.04  A 
ATOM     35  CD2 TYR B 805      44.288  51.740  22.794  1.00 24.65 LIG 0.01  A 
BRANCH 33 36
ATOM     36 OH   TYR B 805      44.312  48.852  20.553  1.00 25.16 LIG-0.36  OA
ATOM     37 HH   TYR B 805      43.478  48.909  20.462  1.00 25.16 LIG 0.22  HD
ENDBRANCH 33 36
ENDBRANCH 29 30
ENDBRANCH 28 29
BRANCH 28 38
ATOM     38  C   TYR B 805      46.743  55.176  24.317  1.00 29.85 LIG 0.24  C 
ATOM     39 O    TYR B 805      45.817  56.020  24.477  1.00 30.08 LIG-0.27  OA
ATOM     40  N   GLY B 806      47.945  55.272  24.862  1.00 28.51 LIG-0.35  N 
ATOM     41 H    GLY B 806      48.614  54.781  24.636  1.00 28.51 LIG 0.16  HD
BRANCH 40 42
ATOM     42  CA  GLY B 806      48.234  56.229  25.902  1.00 29.14 LIG 0.23  C 
BRANCH 42 43
ATOM     43  C   GLY B 806      48.921  57.453  25.380  1.00 28.84 LIG 0.19  C 
ATOM     44 OXT  GLY B 806      49.626  58.064  26.166  1.00 29.15 LIG-0.65  OA
ATOM     45 O    GLY B 806      48.815  57.826  24.202  1.00 28.96 LIG-0.65  OA
ENDBRANCH 42 43
ENDBRANCH 40 42
ENDBRANCH 28 38
ENDBRANCH 25 28
ENDBRANCH 1 24
BRANCH 1 46
ATOM     46  CB  LEU B 804      48.232  51.747  19.810  1.00 30.53 LIG 0.04  C 
BRANCH 46 47
ATOM     47  CG  LEU B 804      48.859  51.481  18.430  1.00 30.66 LIG-0.02  C 
ATOM     48  CD1 LEU B 804      47.897  50.686  17.561  1.00 31.81 LIG 0.01  C 
ATOM     49  CD2 LEU B 804      49.250  52.776  17.750  1.00 30.59 LIG 0.01  C 
ENDBRANCH 46 47
ENDBRANCH 1 46
TORSDOF 19
ENDMDL
MODEL 2
USER: ADFR SOLUTION from run 76
USER: SCORE 13.220280 LL:  -3.267 LR: -13.157 RR:   0.000 FEB:  -7.489
USER: RMSD 2.144524
USER: SEED 75
USER: STATUS no improvement in best 2 clusters for 5 generations
USER: GENES 21
USER: genes 0 Translation |==|  0.49028 0.52314 0.45045
USER: genes 1 Rotation |==|  0.40231 0.51981 0.59025 0.98158
USER: genes 2 Torsion [CB]-CA--N-[C] |==|  0.35566
USER: genes 3 Torsion [N]-C--CA-[N] |==|  0.33953
USER: genes 4 Torsion [C]-CA--CB-[CG] |==|  0.79521
USER: genes 5 Torsion [CA]-CB--CG-[OD1] |==|  0.35717
USER: genes 6 Torsion [C]-CA--N-[C] |==|  0.78975
USER: genes 7 Torsion [N]-C--CA-[N] |==|  0.27677
USER: genes 8 Torsion [C]-CA--CB-[CG] |==|  0.24141
USER: genes 9 Torsion [CA]-CB--CG-[OD1] |==|  0.88067
USER: genes 10 Torsion [C]-CA--N-[H3] |==|  0.87239
USER: genes 11 Torsion [N]-CA--C-[N] |==|  0.94830
USER: genes 12 Torsion [C]-N--CA-[CB] |==|  0.30238
USER: genes 13 Torsion [N]-CA--CB-[CG] |==|  0.70747
USER: genes 14 Torsion [CA]-CB--CG-[CD2] |==|  0.88302
USER: genes 15 Torsion [CE1]-CZ--OH-[HH] |==|  0.48133
USER: genes 16 Torsion [N]-CA--C-[N] |==|  0.83841
USER: genes 17 Torsion [C]-N--CA-[C] |==|  0.72981
USER: genes 18 Torsion [N]-CA--C-[OXT] |==|  0.54463
USER: genes 19 Torsion [N]-CA--CB-[CG] |==|  0.48385
USER: genes 20 Torsion [CA]-CB--CG-[CD1] |==|  0.34087
ROOT
ATOM      1  CA  LEU B 804      49.648  52.964  20.363  1.00 31.72 LIG 0.18  C 
ENDROOT
BRANCH 1 2
ATOM      2  N   LEU B 804      50.867  53.192  21.151  1.00 32.47 LIG-0.35  N 
ATOM      3 H    LEU B 804      50.928  52.684  21.842  1.00 32.47 LIG 0.16  HD
ATOM      4  C   ASP B 803      51.790  54.096  20.832  1.00 36.20 LIG 0.24  C 
ATOM      5 O    ASP B 803      51.696  54.893  19.881  1.00 34.88 LIG-0.27  OA
BRANCH 4 6
ATOM      6  CA  ASP B 803      53.030  54.089  21.739  1.00 38.58 LIG 0.19  C 
BRANCH 6 7
ATOM      7  CB  ASP B 803      53.083  55.349  22.590  1.00 39.00 LIG 0.15  C 
BRANCH 7 8
ATOM      8  CG  ASP B 803      53.483  56.574  21.762  1.00 41.67 LIG 0.17  C 
ATOM      9 OD1  ASP B 803      52.750  57.604  21.833  1.00 44.54 LIG-0.65  OA
ATOM     10 OD2  ASP B 803      54.493  56.488  21.015  1.00 44.60 LIG-0.65  OA
ENDBRANCH 7 8
ENDBRANCH 6 7
BRANCH 6 11
ATOM     11  N   ASP B 803      54.236  53.866  20.957  1.00 40.89 LIG-0.34  N 
ATOM     12 H    ASP B 803      54.724  54.561  20.820  1.00 40.89 LIG 0.16  HD
ATOM     13  C   ASP B 802      54.504  52.638  20.512  1.00 43.36 LIG 0.25  C 
ATOM     14 O    ASP B 802      53.750  51.676  20.728  1.00 44.71 LIG-0.27  OA
BRANCH 13 15
ATOM     15  CA  ASP B 802      55.809  52.432  19.739  1.00 44.06 LIG 0.28  C 
BRANCH 15 16
ATOM     16  CB  ASP B 802      55.592  51.497  18.545  1.00 45.52 LIG 0.15  C 
BRANCH 16 17
ATOM     17  CG  ASP B 802      55.130  52.234  17.292  1.00 48.04 LIG 0.17  C 
ATOM     18 OD1  ASP B 802      54.250  53.135  17.371  1.00 55.65 LIG-0.65  OA
ATOM     19 OD2  ASP B 802      55.663  51.905  16.212  1.00 54.24 LIG-0.65  OA
ENDBRANCH 16 17
ENDBRANCH 15 16
BRANCH 15 20
ATOM     20  N   ASP B 802      56.833  51.854  20.645  1.00 45.51 LIG-0.07  N 
ATOM     21 H3   ASP B 802      56.830  52.296  21.417  1.00 45.51 LIG 0.28  HD
ATOM     22 H1   ASP B 802      56.647  50.996  20.794  1.00 45.51 LIG 0.28  HD
ATOM     23 H2   ASP B 802      57.636  51.922  20.267  1.00 45.51 LIG 0.28  HD
ENDBRANCH 15 20
ENDBRANCH 13 15
ENDBRANCH 6 11
ENDBRANCH 4 6
ENDBRANCH 1 2
BRANCH 1 24
ATOM     24  C   LEU B 804      48.356  53.429  21.051  1.00 30.12 LIG 0.24  C 
ATOM     25  N   TYR B 805      48.395  53.617  22.367  1.00 29.37 LIG-0.35  N 
ATOM     26 H    TYR B 805      49.124  53.658  22.823  1.00 29.37 LIG 0.16  HD
ATOM     27 O    LEU B 804      47.358  53.632  20.393  1.00 28.94 LIG-0.27  OA
BRANCH 25 28
ATOM     28  CA  TYR B 805      47.176  53.773  23.166  1.00 29.00 LIG 0.18  C 
BRANCH 28 29
ATOM     29  CB  TYR B 805      46.961  52.517  24.029  1.00 27.91 LIG 0.07  C 
BRANCH 29 30
ATOM     30  CG  TYR B 805      45.838  51.711  23.416  1.00 26.10 LIG-0.06  A 
ATOM     31  CD1 TYR B 805      45.970  50.352  23.193  1.00 25.09 LIG 0.01  A 
ATOM     32  CE1 TYR B 805      44.983  49.620  22.561  1.00 24.79 LIG 0.04  A 
ATOM     33  CZ  TYR B 805      43.876  50.257  22.084  1.00 22.85 LIG 0.07  A 
ATOM     34  CE2 TYR B 805      43.713  51.617  22.292  1.00 24.72 LIG 0.04  A 
ATOM     35  CD2 TYR B 805      44.707  52.338  22.942  1.00 24.65 LIG 0.01  A 
BRANCH 33 36
ATOM     36 OH   TYR B 805      42.864  49.528  21.503  1.00 25.16 LIG-0.36  OA
ATOM     37 HH   TYR B 805      42.212  50.034  21.341  1.00 25.16 LIG 0.22  HD
ENDBRANCH 33 36
ENDBRANCH 29 30
ENDBRANCH 28 29
BRANCH 28 38
ATOM     38  C   TYR B 805      47.125  55.039  24.021  1.00 29.85 LIG 0.24  C 
ATOM     39 O    TYR B 805      46.190  55.876  23.877  1.00 30.08 LIG-0.27  OA
ATOM     40  N   GLY B 806      48.117  55.169  24.887  1.00 28.51 LIG-0.35  N 
ATOM     41 H    GLY B 806      48.824  54.680  24.882  1.00 28.51 LIG 0.16  HD
BRANCH 40 42
ATOM     42  CA  GLY B 806      48.088  56.162  25.933  1.00 29.14 LIG 0.23  C 
BRANCH 42 43
ATOM     43  C   GLY B 806      48.847  57.400  25.568  1.00 28.84 LIG 0.19  C 
ATOM     44 OXT  GLY B 806      49.133  58.158  26.481  1.00 29.15 LIG-0.65  OA
ATOM     45 O    GLY B 806      49.201  57.647  24.405  1.00 28.96 LIG-0.65  OA
ENDBRANCH 42 43
ENDBRANCH 40 42
ENDBRANCH 28 38
ENDBRANCH 25 28
ENDBRANCH 1 24
BRANCH 1 46
ATOM     46  CB  LEU B 804      49.537  51.466  20.049  1.00 30.53 LIG 0.04  C 
BRANCH 46 47
ATOM     47  CG  LEU B 804      48.233  51.051  19.346  1.00 30.66 LIG-0.02  C 
ATOM     48  CD1 LEU B 804      48.545  50.361  18.026  1.00 31.81 LIG 0.01  C 
ATOM     49  CD2 LEU B 804      47.397  50.154  20.234  1.00 30.59 LIG 0.01  C 
ENDBRANCH 46 47
ENDBRANCH 1 46
TORSDOF 19
ENDMDL
MODEL 3
USER: ADFR SOLUTION from run 101
USER: SCORE 12.853801 LL:  -3.600 LR: -12.278 RR:   0.000 FEB:  -6.611
USER: RMSD 1.974905
USER: SEED 100
USER: STATUS 1 or 2 clusters left
USER: GENES 21
USER: genes 0 Translation |==|  0.46376 0.52314 0.45330
USER: genes 1 Rotation |==|  0.47996 0.47684 0.51664 0.99878
USER: genes 2 Torsion [CB]-CA--N-[C] |==|  0.36061
USER: genes 3 Torsion [N]-C--CA-[N] |==|  0.37704
USER: genes 4 Torsion [C]-CA--CB-[CG] |==|  0.65556
USER: genes 5 Torsion [CA]-CB--CG-[OD1] |==|  0.16968
USER: genes 6 Torsion [C]-CA--N-[C] |==|  0.79362
USER: genes 7 Torsion [N]-C--CA-[N] |==|  0.27036
USER: genes 8 Torsion [C]-CA--CB-[CG] |==|  0.20879
USER: genes 9 Torsion [CA]-CB--CG-[OD1] |==|  0.97483
USER: genes 10 Torsion [C]-CA--N-[H3] |==|  0.16653
USER: genes 11 Torsion [N]-CA--C-[N] |==|  0.92671
USER: genes 12 Torsion [C]-N--CA-[CB] |==|  0.39197
USER: genes 13 Torsion [N]-CA--CB-[CG] |==|  0.75148
USER: genes 14 Torsion [CA]-CB--CG-[CD2] |==|  0.81034
USER: genes 15 Torsion [CE1]-CZ--OH-[HH] |==|  0.50162
USER: genes 16 Torsion [N]-CA--C-[N] |==|  0.60201
USER: genes 17 Torsion [C]-N--CA-[C] |==|  0.74827
USER: genes 18 Torsion [N]-CA--C-[OXT] |==|  0.52764
USER: genes 19 Torsion [N]-CA--CB-[CG] |==|  0.18601
USER: genes 20 Torsion [CA]-CB--CG-[CD1] |==|  0.45404
ROOT
ATOM      1  CA  LEU B 804      48.853  52.964  20.449  1.00 31.72 LIG 0.18  C 
ENDROOT
BRANCH 1 2
ATOM      2  N   LEU B 804      49.896  52.575  21.406  1.00 32.47 LIG-0.35  N 
ATOM      3 H    LEU B 804      49.698  51.875  21.864  1.00 32.47 LIG 0.16  HD
ATOM      4  C   ASP B 803      51.040  53.238  21.556  1.00 36.20 LIG 0.24  C 
ATOM      5 O    ASP B 803      51.326  54.294  20.962  1.00 34.88 LIG-0.27  OA
BRANCH 4 6
ATOM      6  CA  ASP B 803      52.028  52.592  22.540  1.00 38.58 LIG 0.19  C 
BRANCH 6 7
ATOM      7  CB  ASP B 803      51.928  53.244  23.912  1.00 39.00 LIG 0.15  C 
BRANCH 7 8
ATOM      8  CG  ASP B 803      53.283  53.782  24.382  1.00 41.67 LIG 0.17  C 
ATOM      9 OD1  ASP B 803      53.841  54.678  23.681  1.00 44.54 LIG-0.65  OA
ATOM     10 OD2  ASP B 803      53.801  53.280  25.413  1.00 44.60 LIG-0.65  OA
ENDBRANCH 7 8
ENDBRANCH 6 7
BRANCH 6 11
ATOM     11  N   ASP B 803      53.375  52.598  21.992  1.00 40.89 LIG-0.34  N 
ATOM     12 H    ASP B 803      53.915  53.171  22.338  1.00 40.89 LIG 0.16  HD
ATOM     13  C   ASP B 802      53.684  51.742  21.017  1.00 43.36 LIG 0.25  C 
ATOM     14 O    ASP B 802      52.854  50.948  20.546  1.00 44.71 LIG-0.27  OA
BRANCH 13 15
ATOM     15  CA  ASP B 802      55.125  51.741  20.503  1.00 44.06 LIG 0.28  C 
BRANCH 15 16
ATOM     16  CB  ASP B 802      55.162  51.538  18.985  1.00 45.52 LIG 0.15  C 
BRANCH 16 17
ATOM     17  CG  ASP B 802      54.753  52.788  18.211  1.00 48.04 LIG 0.17  C 
ATOM     18 OD1  ASP B 802      54.270  53.783  18.818  1.00 55.65 LIG-0.65  OA
ATOM     19 OD2  ASP B 802      54.926  52.770  16.975  1.00 54.24 LIG-0.65  OA
ENDBRANCH 16 17
ENDBRANCH 15 16
BRANCH 15 20
ATOM     20  N   ASP B 802      55.885  50.653  21.169  1.00 45.51 LIG-0.07  N 
ATOM     21 H3   ASP B 802      55.503  49.870  20.986  1.00 45.51 LIG 0.28  HD
ATOM     22 H1   ASP B 802      56.724  50.651  20.871  1.00 45.51 LIG 0.28  HD
ATOM     23 H2   ASP B 802      55.883  50.785  22.049  1.00 45.51 LIG 0.28  HD
ENDBRANCH 15 20
ENDBRANCH 13 15
ENDBRANCH 6 11
ENDBRANCH 4 6
ENDBRANCH 1 2
BRANCH 1 24
ATOM     24  C   LEU B 804      47.594  53.561  21.095  1.00 30.12 LIG 0.24  C 
ATOM     25  N   TYR B 805      47.315  53.198  22.344  1.00 29.37 LIG-0.35  N 
ATOM     26 H    TYR B 805      47.871  52.792  22.859  1.00 29.37 LIG 0.16  HD
ATOM     27 O    LEU B 804      46.911  54.350  20.478  1.00 28.94 LIG-0.27  OA
BRANCH 25 28
ATOM     28  CA  TYR B 805      46.010  53.464  22.956  1.00 29.00 LIG 0.18  C 
BRANCH 28 29
ATOM     29  CB  TYR B 805      45.593  52.264  23.824  1.00 27.91 LIG 0.07  C 
BRANCH 29 30
ATOM     30  CG  TYR B 805      44.824  51.297  22.952  1.00 26.10 LIG-0.06  A 
ATOM     31  CD1 TYR B 805      45.398  50.117  22.512  1.00 25.09 LIG 0.01  A 
ATOM     32  CE1 TYR B 805      44.735  49.264  21.650  1.00 24.79 LIG 0.04  A 
ATOM     33  CZ  TYR B 805      43.511  49.618  21.165  1.00 22.85 LIG 0.07  A 
ATOM     34  CE2 TYR B 805      42.908  50.792  21.587  1.00 24.72 LIG 0.04  A 
ATOM     35  CD2 TYR B 805      43.581  51.633  22.466  1.00 24.65 LIG 0.01  A 
BRANCH 33 36
ATOM     36 OH   TYR B 805      42.820  48.750  20.350  1.00 25.16 LIG-0.36  OA
ATOM     37 HH   TYR B 805      42.091  49.101  20.122  1.00 25.16 LIG 0.22  HD
ENDBRANCH 33 36
ENDBRANCH 29 30
ENDBRANCH 28 29
BRANCH 28 38
ATOM     38  C   TYR B 805      45.926  54.768  23.750  1.00 29.85 LIG 0.24  C 
ATOM     39 O    TYR B 805      46.539  55.801  23.358  1.00 30.08 LIG-0.27  OA
ATOM     40  N   GLY B 806      45.184  54.710  24.844  1.00 28.51 LIG-0.35  N 
ATOM     41 H    GLY B 806      44.892  53.977  25.186  1.00 28.51 LIG 0.16  HD
BRANCH 40 42
ATOM     42  CA  GLY B 806      44.796  55.898  25.564  1.00 29.14 LIG 0.23  C 
BRANCH 42 43
ATOM     43  C   GLY B 806      45.779  56.267  26.632  1.00 28.84 LIG 0.19  C 
ATOM     44 OXT  GLY B 806      45.440  57.145  27.410  1.00 29.15 LIG-0.65  OA
ATOM     45 O    GLY B 806      46.876  55.701  26.753  1.00 28.96 LIG-0.65  OA
ENDBRANCH 42 43
ENDBRANCH 40 42
ENDBRANCH 28 38
ENDBRANCH 25 28
ENDBRANCH 1 24
BRANCH 1 46
ATOM     46  CB  LEU B 804      48.456  51.732  19.625  1.00 30.53 LIG 0.04  C 
BRANCH 46 47
ATOM     47  CG  LEU B 804      47.747  50.624  20.423  1.00 30.66 LIG-0.02  C 
ATOM     48  CD1 LEU B 804      47.046  49.661  19.478  1.00 31.81 LIG 0.01  C 
ATOM     49  CD2 LEU B 804      48.723  49.885  21.314  1.00 30.59 LIG 0.01  C 
ENDBRANCH 46 47
ENDBRANCH 1 46
TORSDOF 19
ENDMDL
