MODEL 1
USER: ADFR SOLUTION from run 88
USER: SCORE 16.726205 LL:  -3.217 LR: -14.948 RR:   0.000 FEB: -10.473
USER: RMSD 2.034132
USER: SEED 87
USER: STATUS 1 or 2 clusters left
USER: GENES 17
USER: genes 0 Translation |==|  0.51282 0.52447 0.51278
USER: genes 1 Rotation |==|  0.53834 0.48368 0.43552 0.99407
USER: genes 2 Torsion [C]-N--CA-[CB] |==|  0.36684
USER: genes 3 Torsion [N]-CA--C-[N] |==|  0.89069
USER: genes 4 Torsion [C]-N--CA-[C] |==|  0.17761
USER: genes 5 Torsion [N]-CA--CB-[CG] |==|  0.86632
USER: genes 6 Torsion [CA]-CB--CG-[CD2] |==|  0.83216
USER: genes 7 Torsion [N]-CA--C-[OXT] |==|  0.38042
USER: genes 8 Torsion [N]-CA--CB-[CG2] |==|  0.68164
USER: genes 9 Torsion [CA]-CB--OG1-[HG1] |==|  0.13292
USER: genes 10 Torsion [N]-C--CA-[N] |==|  0.31857
USER: genes 11 Torsion [C]-CA--CB-[CG] |==|  0.37539
USER: genes 12 Torsion [CA]-CB--CG-[CD] |==|  0.43994
USER: genes 13 Torsion [CB]-CG--CD-[OE1] |==|  0.24696
USER: genes 14 Torsion [C]-CA--N-[C] |==|  0.70408
USER: genes 15 Torsion [N]-C--CA-[N] |==|  0.69764
USER: genes 16 Torsion [C]-CA--N-[H1] |==|  0.42436
ROOT
ATOM      1  C   GLU S   2     -11.676  13.934  33.184  1.00 67.93 LIG 0.24  C 
ATOM      2 O    GLU S   2     -12.235  15.039  33.225  1.00 66.60 LIG-0.27  OA
ATOM      3  N   THR S   3     -10.459  13.754  32.685  1.00 66.34 LIG-0.34  N 
ATOM      4 H    THR S   3     -10.071  12.987  32.646  1.00 66.34 LIG 0.16  HD
ENDROOT
BRANCH 3 5
ATOM      5  CA  THR S   3      -9.661  14.851  32.154  1.00 65.04 LIG 0.20  C 
BRANCH 5 6
ATOM      6  C   THR S   3      -9.610  14.794  30.636  1.00 64.78 LIG 0.24  C 
ATOM      7 O    THR S   3      -9.664  15.816  29.941  1.00 64.25 LIG-0.27  OA
ATOM      8  N   PHE S   4      -9.499  13.573  30.131  1.00 64.25 LIG-0.34  N 
ATOM      9 H    PHE S   4      -9.474  12.861  30.612  1.00 64.25 LIG 0.16  HD
BRANCH 8 10
ATOM     10  CA  PHE S   4      -9.410  13.322  28.701  1.00 63.65 LIG 0.19  C 
BRANCH 10 11
ATOM     11  CB  PHE S   4     -10.610  13.934  28.013  1.00 60.49 LIG 0.07  C 
BRANCH 11 12
ATOM     12  CG  PHE S   4     -11.898  13.604  28.662  1.00 55.48 LIG-0.06  A 
ATOM     13  CD2 PHE S   4     -12.310  12.285  28.776  1.00 51.26 LIG 0.01  A 
ATOM     14  CE2 PHE S   4     -13.547  11.977  29.321  1.00 48.18 LIG 0.00  A 
ATOM     15  CZ  PHE S   4     -14.372  12.977  29.772  1.00 46.44 LIG 0.00  A 
ATOM     16  CE1 PHE S   4     -13.971  14.299  29.674  1.00 48.00 LIG 0.00  A 
ATOM     17  CD1 PHE S   4     -12.726  14.607  29.130  1.00 50.38 LIG 0.01  A 
ENDBRANCH 11 12
ENDBRANCH 10 11
BRANCH 10 18
ATOM     18  C   PHE S   4      -8.166  13.910  28.088  1.00 64.82 LIG 0.20  C 
ATOM     19 O    PHE S   4      -7.833  15.075  28.401  1.00 66.03 LIG-0.65  OA
ATOM     20 OXT  PHE S   4      -7.560  13.192  27.270  1.00 65.83 LIG-0.65  OA
ENDBRANCH 10 18
ENDBRANCH 8 10
ENDBRANCH 5 6
BRANCH 5 21
ATOM     21  CB  THR S   3      -8.251  14.782  32.729  1.00 64.83 LIG 0.15  C 
ATOM     22  CG2 THR S   3      -7.963  15.979  33.612  1.00 63.45 LIG 0.04  C 
BRANCH 21 23
ATOM     23 OG1  THR S   3      -8.140  13.590  33.509  1.00 64.80 LIG-0.39  OA
ATOM     24 HG1  THR S   3      -8.443  12.940  33.072  1.00 64.80 LIG 0.21  HD
ENDBRANCH 21 23
ENDBRANCH 5 21
ENDBRANCH 3 5
BRANCH 1 25
ATOM     25  CA  GLU S   2     -12.355  12.665  33.724  1.00 70.09 LIG 0.18  C 
BRANCH 25 26
ATOM     26  CB  GLU S   2     -13.695  12.425  33.023  1.00 72.94 LIG 0.04  C 
BRANCH 26 27
ATOM     27  CG  GLU S   2     -13.897  10.970  32.606  1.00 78.29 LIG 0.12  C 
BRANCH 27 28
ATOM     28  CD  GLU S   2     -15.352  10.598  32.400  1.00 81.85 LIG 0.17  C 
ATOM     29 OE1  GLU S   2     -15.860  10.762  31.271  1.00 85.61 LIG-0.65  OA
ATOM     30 OE2  GLU S   2     -15.993  10.141  33.374  1.00 84.00 LIG-0.65  OA
ENDBRANCH 27 28
ENDBRANCH 26 27
ENDBRANCH 25 26
BRANCH 25 31
ATOM     31  N   GLU S   2     -12.578  12.704  35.170  1.00 70.96 LIG-0.35  N 
ATOM     32  C   ALA S   1     -11.844  11.977  36.010  1.00 72.19 LIG 0.25  C 
ATOM     33 O    ALA S   1     -10.921  11.250  35.630  1.00 72.37 LIG-0.27  OA
ATOM     34 H    GLU S   2     -13.213  13.228  35.418  1.00 70.96 LIG 0.16  HD
BRANCH 32 35
ATOM     35  CA  ALA S   1     -12.189  12.081  37.502  1.00 72.54 LIG 0.27  C 
ATOM     36  CB  ALA S   1     -13.554  12.746  37.687  1.00 73.45 LIG 0.05  C 
BRANCH 35 37
ATOM     37  N   ALA S   1     -11.149  12.825  38.279  1.00 73.25 LIG-0.07  N 
ATOM     38 H2   ALA S   1     -10.514  12.260  38.543  1.00 73.25 LIG 0.28  HD
ATOM     39 H1   ALA S   1     -11.525  13.203  38.992  1.00 73.25 LIG 0.28  HD
ATOM     40 H3   ALA S   1     -10.789  13.456  37.765  1.00 73.25 LIG 0.28  HD
ENDBRANCH 35 37
ENDBRANCH 32 35
ENDBRANCH 25 31
ENDBRANCH 1 25
TORSDOF 15
ENDMDL
