MODEL 1
USER: ADFR SOLUTION from run 19
USER: SCORE 9.566505 LL:  -2.535 LR:  -9.295 RR:   0.000 FEB:  -5.715
USER: RMSD 1.382974
USER: SEED 18
USER: STATUS 1 or 2 clusters left
USER: GENES 14
USER: genes 0 Translation |==|  0.51209 0.47124 0.57446
USER: genes 1 Rotation |==|  0.53037 0.53634 0.49255 0.99770
USER: genes 2 Torsion [C]-CA--CB-[CG] |==|  0.21539
USER: genes 3 Torsion [CA]-CB--CG-[CD1] |==|  0.41085
USER: genes 4 Torsion [N]-CA--C-[N] |==|  0.83077
USER: genes 5 Torsion [C]-N--CA-[CB] |==|  0.73333
USER: genes 6 Torsion [N]-CA--C-[N] |==|  0.19813
USER: genes 7 Torsion [C]-N--CA-[C] |==|  0.68727
USER: genes 8 Torsion [N]-CA--C-[O] |==|  0.05611
USER: genes 9 Torsion [CB]-CA--N-[C] |==|  0.48950
USER: genes 10 Torsion [N]-C--CA-[N] |==|  0.72088
USER: genes 11 Torsion [C]-CA--N-[C] |==|  0.60048
USER: genes 12 Torsion [N]-C--CA-[N] |==|  0.52772
USER: genes 13 Torsion [C]-CA--N-[H2] |==|  0.99340
ROOT
ATOM      1  CA  LEU B   3     -15.207 -25.243  42.274  1.00 80.55 LIG 0.18  C 
ENDROOT
BRANCH 1 2
ATOM      2  CB  LEU B   3     -13.898 -24.538  42.659  1.00 80.55 LIG 0.04  C 
BRANCH 2 3
ATOM      3  CG  LEU B   3     -13.900 -23.308  43.602  1.00 80.55 LIG-0.02  C 
ATOM      4  CD1 LEU B   3     -12.591 -23.268  44.464  1.00 80.53 LIG 0.01  C 
ATOM      5  CD2 LEU B   3     -14.061 -21.967  42.843  1.00 80.44 LIG 0.01  C 
ENDBRANCH 2 3
ENDBRANCH 1 2
BRANCH 1 6
ATOM      6  C   LEU B   3     -15.960 -24.449  41.209  1.00 80.58 LIG 0.24  C 
ATOM      7  N   ALA B   4     -15.274 -24.235  40.079  1.00 80.60 LIG-0.35  N 
ATOM      8 H    ALA B   4     -14.461 -24.496  39.980  1.00 80.60 LIG 0.16  HD
ATOM      9 O    LEU B   3     -17.122 -24.072  41.400  1.00 80.60 LIG-0.27  OA
BRANCH 7 10
ATOM     10  CA  ALA B   4     -15.799 -23.547  38.888  1.00 80.57 LIG 0.17  C 
ATOM     11  CB  ALA B   4     -16.319 -24.555  37.872  1.00 80.56 LIG 0.04  C 
BRANCH 10 12
ATOM     12  C   ALA B   4     -16.859 -22.500  39.235  1.00 80.56 LIG 0.24  C 
ATOM     13  N   GLY B   5     -16.394 -21.405  39.838  1.00 80.55 LIG-0.35  N 
ATOM     14 H    GLY B   5     -15.555 -21.264  39.962  1.00 80.55 LIG 0.16  HD
ATOM     15 O    ALA B   4     -18.054 -22.683  38.966  1.00 80.59 LIG-0.27  OA
BRANCH 13 16
ATOM     16  CA  GLY B   5     -17.247 -20.328  40.354  1.00 80.50 LIG 0.21  C 
BRANCH 16 17
ATOM     17  C   GLY B   5     -17.155 -18.986  39.647  1.00 80.51 LIG 0.21  C 
ATOM     18 O    GLY B   5     -16.692 -18.930  38.473  1.00 80.50 LIG-0.29  OA
ENDBRANCH 16 17
ENDBRANCH 13 16
ENDBRANCH 10 12
ENDBRANCH 7 10
ENDBRANCH 1 6
BRANCH 1 19
ATOM     19  N   LEU B   3     -14.942 -26.515  41.622  1.00 80.50 LIG-0.35  N 
ATOM     20  C   ALA B   2     -15.932 -27.356  41.256  1.00 80.42 LIG 0.24  C 
ATOM     21 O    ALA B   2     -17.013 -27.469  41.895  1.00 80.43 LIG-0.27  OA
ATOM     22 H    LEU B   3     -14.107 -26.677  41.493  1.00 80.50 LIG 0.16  HD
BRANCH 20 23
ATOM     23  CA  ALA B   2     -15.571 -28.346  40.145  1.00 80.35 LIG 0.17  C 
ATOM     24  CB  ALA B   2     -14.071 -28.505  40.040  1.00 80.34 LIG 0.04  C 
BRANCH 23 25
ATOM     25  N   ALA B   2     -16.113 -27.844  38.878  1.00 80.28 LIG-0.35  N 
ATOM     26 H    ALA B   2     -16.080 -26.987  38.808  1.00 80.28 LIG 0.16  HD
ATOM     27  C   GLY B   1     -16.609 -28.630  37.925  1.00 80.20 LIG 0.24  C 
ATOM     28 O    GLY B   1     -16.702 -29.853  38.026  1.00 80.22 LIG-0.27  OA
BRANCH 27 29
ATOM     29  CA  GLY B   1     -17.070 -27.927  36.665  1.00 80.17 LIG 0.33  C 
BRANCH 29 30
ATOM     30  N   GLY B   1     -17.827 -28.816  35.736  1.00 80.00 LIG-0.07  N 
ATOM     31 H3   GLY B   1     -18.657 -28.508  35.640  1.00 80.00 LIG 0.27  HD
ATOM     32 H2   GLY B   1     -17.853 -29.641  36.069  1.00 80.00 LIG 0.27  HD
ATOM     33 H1   GLY B   1     -17.423 -28.829  34.942  1.00 80.00 LIG 0.27  HD
ENDBRANCH 29 30
ENDBRANCH 27 29
ENDBRANCH 23 25
ENDBRANCH 20 23
ENDBRANCH 1 19
TORSDOF 12
ENDMDL
MODEL 2
USER: ADFR SOLUTION from run 31
USER: SCORE 7.730055 LL:  -2.180 LR:  -8.465 RR:   0.000 FEB:  -4.886
USER: RMSD 1.971179
USER: SEED 30
USER: STATUS no improvement in best 2 clusters for 5 generations
USER: GENES 14
USER: genes 0 Translation |==|  0.50496 0.48935 0.57799
USER: genes 1 Rotation |==|  0.51270 0.54734 0.48752 0.99743
USER: genes 2 Torsion [C]-CA--CB-[CG] |==|  0.25139
USER: genes 3 Torsion [CA]-CB--CG-[CD1] |==|  0.39957
USER: genes 4 Torsion [N]-CA--C-[N] |==|  0.23227
USER: genes 5 Torsion [C]-N--CA-[CB] |==|  0.68858
USER: genes 6 Torsion [N]-CA--C-[N] |==|  0.19208
USER: genes 7 Torsion [C]-N--CA-[C] |==|  0.18418
USER: genes 8 Torsion [N]-CA--C-[O] |==|  0.71762
USER: genes 9 Torsion [CB]-CA--N-[C] |==|  0.48540
USER: genes 10 Torsion [N]-C--CA-[N] |==|  0.73519
USER: genes 11 Torsion [C]-CA--N-[C] |==|  0.53180
USER: genes 12 Torsion [N]-C--CA-[N] |==|  0.58175
USER: genes 13 Torsion [C]-CA--N-[H2] |==|  0.99025
ROOT
ATOM      1  CA  LEU B   3     -15.421 -24.699  42.380  1.00 80.55 LIG 0.18  C 
ENDROOT
BRANCH 1 2
ATOM      2  CB  LEU B   3     -14.088 -23.987  42.654  1.00 80.55 LIG 0.04  C 
BRANCH 2 3
ATOM      3  CG  LEU B   3     -13.980 -22.881  43.734  1.00 80.55 LIG-0.02  C 
ATOM      4  CD1 LEU B   3     -12.594 -22.951  44.463  1.00 80.53 LIG 0.01  C 
ATOM      5  CD2 LEU B   3     -14.192 -21.457  43.161  1.00 80.44 LIG 0.01  C 
ENDBRANCH 2 3
ENDBRANCH 1 2
BRANCH 1 6
ATOM      6  C   LEU B   3     -16.214 -23.973  41.297  1.00 80.58 LIG 0.24  C 
ATOM      7  N   ALA B   4     -17.533 -24.204  41.316  1.00 80.60 LIG-0.35  N 
ATOM      8 H    ALA B   4     -17.895 -24.747  41.876  1.00 80.60 LIG 0.16  HD
ATOM      9 O    LEU B   3     -15.652 -23.216  40.496  1.00 80.60 LIG-0.27  OA
BRANCH 7 10
ATOM     10  CA  ALA B   4     -18.515 -23.580  40.414  1.00 80.57 LIG 0.17  C 
ATOM     11  CB  ALA B   4     -19.427 -22.635  41.186  1.00 80.56 LIG 0.04  C 
BRANCH 10 12
ATOM     12  C   ALA B   4     -17.856 -22.879  39.225  1.00 80.56 LIG 0.24  C 
ATOM     13  N   GLY B   5     -17.285 -23.693  38.336  1.00 80.55 LIG-0.35  N 
ATOM     14 H    GLY B   5     -17.340 -24.549  38.388  1.00 80.55 LIG 0.16  HD
ATOM     15 O    ALA B   4     -17.867 -21.645  39.121  1.00 80.59 LIG-0.27  OA
BRANCH 13 16
ATOM     16  CA  GLY B   5     -16.506 -23.230  37.181  1.00 80.50 LIG 0.21  C 
BRANCH 16 17
ATOM     17  C   GLY B   5     -15.195 -22.522  37.480  1.00 80.51 LIG 0.21  C 
ATOM     18 O    GLY B   5     -15.139 -21.261  37.415  1.00 80.50 LIG-0.29  OA
ENDBRANCH 16 17
ENDBRANCH 13 16
ENDBRANCH 10 12
ENDBRANCH 7 10
ENDBRANCH 1 6
BRANCH 1 19
ATOM     19  N   LEU B   3     -15.201 -26.018  41.809  1.00 80.50 LIG-0.35  N 
ATOM     20  C   ALA B   2     -16.212 -26.881  41.576  1.00 80.42 LIG 0.24  C 
ATOM     21 O    ALA B   2     -17.246 -26.941  42.295  1.00 80.43 LIG-0.27  OA
ATOM     22 H    LEU B   3     -14.376 -26.192  41.635  1.00 80.50 LIG 0.16  HD
BRANCH 20 23
ATOM     23  CA  ALA B   2     -15.927 -27.953  40.521  1.00 80.35 LIG 0.17  C 
ATOM     24  CB  ALA B   2     -14.442 -28.215  40.415  1.00 80.34 LIG 0.04  C 
BRANCH 23 25
ATOM     25  N   ALA B   2     -16.449 -27.488  39.231  1.00 80.28 LIG-0.35  N 
ATOM     26 H    ALA B   2     -16.676 -26.658  39.233  1.00 80.28 LIG 0.16  HD
ATOM     27  C   GLY B   1     -16.562 -28.267  38.157  1.00 80.20 LIG 0.24  C 
ATOM     28 O    GLY B   1     -16.281 -29.465  38.148  1.00 80.22 LIG-0.27  OA
BRANCH 27 29
ATOM     29  CA  GLY B   1     -17.070 -27.589  36.903  1.00 80.17 LIG 0.33  C 
BRANCH 29 30
ATOM     30  N   GLY B   1     -17.820 -28.507  35.997  1.00 80.00 LIG-0.07  N 
ATOM     31 H3   GLY B   1     -18.665 -28.234  35.930  1.00 80.00 LIG 0.27  HD
ATOM     32 H2   GLY B   1     -17.801 -29.333  36.329  1.00 80.00 LIG 0.27  HD
ATOM     33 H1   GLY B   1     -17.442 -28.503  35.190  1.00 80.00 LIG 0.27  HD
ENDBRANCH 29 30
ENDBRANCH 27 29
ENDBRANCH 23 25
ENDBRANCH 20 23
ENDBRANCH 1 19
TORSDOF 12
ENDMDL
MODEL 3
USER: ADFR SOLUTION from run 149
USER: SCORE 7.748746 LL:  -2.121 LR:  -7.612 RR:   0.000 FEB:  -4.033
USER: RMSD 1.512867
USER: SEED 148
USER: STATUS no improvement in best 2 clusters for 5 generations
USER: GENES 14
USER: genes 0 Translation |==|  0.46297 0.51072 0.56078
USER: genes 1 Rotation |==|  0.52667 0.51334 0.39299 0.98750
USER: genes 2 Torsion [C]-CA--CB-[CG] |==|  0.22872
USER: genes 3 Torsion [CA]-CB--CG-[CD1] |==|  0.45247
USER: genes 4 Torsion [N]-CA--C-[N] |==|  0.78084
USER: genes 5 Torsion [C]-N--CA-[CB] |==|  0.82297
USER: genes 6 Torsion [N]-CA--C-[N] |==|  0.28981
USER: genes 7 Torsion [C]-N--CA-[C] |==|  0.32462
USER: genes 8 Torsion [N]-CA--C-[O] |==|  0.52435
USER: genes 9 Torsion [CB]-CA--N-[C] |==|  0.89142
USER: genes 10 Torsion [N]-C--CA-[N] |==|  0.29541
USER: genes 11 Torsion [C]-CA--N-[C] |==|  0.52888
USER: genes 12 Torsion [N]-C--CA-[N] |==|  0.04055
USER: genes 13 Torsion [C]-CA--N-[H2] |==|  0.08954
ROOT
ATOM      1  CA  LEU B   3     -16.681 -24.058  41.863  1.00 80.55 LIG 0.18  C 
ENDROOT
BRANCH 1 2
ATOM      2  CB  LEU B   3     -15.222 -23.902  42.321  1.00 80.55 LIG 0.04  C 
BRANCH 2 3
ATOM      3  CG  LEU B   3     -14.812 -22.786  43.313  1.00 80.55 LIG-0.02  C 
ATOM      4  CD1 LEU B   3     -13.411 -23.094  43.947  1.00 80.53 LIG 0.01  C 
ATOM      5  CD2 LEU B   3     -14.786 -21.380  42.662  1.00 80.44 LIG 0.01  C 
ENDBRANCH 2 3
ENDBRANCH 1 2
BRANCH 1 6
ATOM      6  C   LEU B   3     -17.000 -23.093  40.725  1.00 80.58 LIG 0.24  C 
ATOM      7  N   ALA B   4     -16.026 -22.954  39.816  1.00 80.60 LIG-0.35  N 
ATOM      8 H    ALA B   4     -15.269 -23.353  39.892  1.00 80.60 LIG 0.16  HD
ATOM      9 O    LEU B   3     -18.095 -22.520  40.665  1.00 80.60 LIG-0.27  OA
BRANCH 7 10
ATOM     10  CA  ALA B   4     -16.114 -22.127  38.602  1.00 80.57 LIG 0.17  C 
ATOM     11  CB  ALA B   4     -17.196 -22.658  37.670  1.00 80.56 LIG 0.04  C 
BRANCH 10 12
ATOM     12  C   ALA B   4     -16.320 -20.644  38.915  1.00 80.56 LIG 0.24  C 
ATOM     13  N   GLY B   5     -15.239 -19.880  38.760  1.00 80.55 LIG-0.35  N 
ATOM     14 H    GLY B   5     -14.499 -20.181  38.443  1.00 80.55 LIG 0.16  HD
ATOM     15 O    ALA B   4     -17.421 -20.213  39.284  1.00 80.59 LIG-0.27  OA
BRANCH 13 16
ATOM     16  CA  GLY B   5     -15.184 -18.455  39.108  1.00 80.50 LIG 0.21  C 
BRANCH 16 17
ATOM     17  C   GLY B   5     -14.211 -18.056  40.205  1.00 80.51 LIG 0.21  C 
ATOM     18 O    GLY B   5     -14.237 -16.878  40.663  1.00 80.50 LIG-0.29  OA
ENDBRANCH 16 17
ENDBRANCH 13 16
ENDBRANCH 10 12
ENDBRANCH 7 10
ENDBRANCH 1 6
BRANCH 1 19
ATOM     19  N   LEU B   3     -16.904 -25.366  41.269  1.00 80.50 LIG-0.35  N 
ATOM     20  C   ALA B   2     -15.991 -25.960  40.471  1.00 80.42 LIG 0.24  C 
ATOM     21 O    ALA B   2     -15.219 -25.317  39.709  1.00 80.43 LIG-0.27  OA
ATOM     22 H    LEU B   3     -17.662 -25.719  41.471  1.00 80.50 LIG 0.16  HD
BRANCH 20 23
ATOM     23  CA  ALA B   2     -16.106 -27.483  40.367  1.00 80.35 LIG 0.17  C 
ATOM     24  CB  ALA B   2     -14.753 -28.133  40.543  1.00 80.34 LIG 0.04  C 
BRANCH 23 25
ATOM     25  N   ALA B   2     -16.658 -27.820  39.051  1.00 80.28 LIG-0.35  N 
ATOM     26 H    ALA B   2     -16.691 -27.150  38.512  1.00 80.28 LIG 0.16  HD
ATOM     27  C   GLY B   1     -17.070 -29.041  38.714  1.00 80.20 LIG 0.24  C 
ATOM     28 O    GLY B   1     -17.070 -30.000  39.485  1.00 80.22 LIG-0.27  OA
BRANCH 27 29
ATOM     29  CA  GLY B   1     -17.557 -29.202  37.290  1.00 80.17 LIG 0.33  C 
BRANCH 29 30
ATOM     30  N   GLY B   1     -17.177 -28.063  36.403  1.00 80.00 LIG-0.07  N 
ATOM     31 H3   GLY B   1     -17.110 -28.350  35.563  1.00 80.00 LIG 0.27  HD
ATOM     32 H2   GLY B   1     -16.394 -27.730  36.665  1.00 80.00 LIG 0.27  HD
ATOM     33 H1   GLY B   1     -17.800 -27.429  36.450  1.00 80.00 LIG 0.27  HD
ENDBRANCH 29 30
ENDBRANCH 27 29
ENDBRANCH 23 25
ENDBRANCH 20 23
ENDBRANCH 1 19
TORSDOF 12
ENDMDL
