MODEL 1
USER: ADFR SOLUTION from run 93
USER: SCORE 11.970256 LL:  -1.190 LR: -10.780 RR:   0.000 FEB:  -8.692
USER: RMSD 1.235179
USER: SEED 92
USER: STATUS 1 or 2 clusters left
USER: GENES 9
USER: genes 0 Translation |==|  0.49360 0.50406 0.51250
USER: genes 1 Rotation |==|  0.45861 0.53663 0.41770 0.99007
USER: genes 2 Torsion [C]-CA--N-[C] |==|  0.81591
USER: genes 3 Torsion [N]-C--CA-[N] |==|  0.97651
USER: genes 4 Torsion [C]-CA--N-[H1] |==|  0.39544
USER: genes 5 Torsion [N]-CA--C-[O] |==|  0.35655
USER: genes 6 Torsion [N]-CA--CB-[CG] |==|  0.53816
USER: genes 7 Torsion [CA]-CB--CG-[CD1] |==|  0.69519
USER: genes 8 Torsion [CE1]-CZ--OH-[HH] |==|  0.83447
ROOT
ATOM      1  CA  TYR A 502      -2.392  29.822  -9.295  1.00 10.00 LIG 0.19  C 
ENDROOT
BRANCH 1 2
ATOM      2  N   TYR A 502      -2.944  30.528  -8.134  1.00 10.00 LIG-0.34  N 
ATOM      3  C   GLY A 501      -2.981  29.952  -6.946  1.00 10.00 LIG 0.24  C 
ATOM      4 O    GLY A 501      -2.609  28.788  -6.729  1.00 10.00 LIG-0.27  OA
ATOM      5 H    TYR A 502      -3.230  31.322  -8.297  1.00 10.00 LIG 0.16  HD
BRANCH 3 6
ATOM      6  CA  GLY A 501      -3.524  30.822  -5.815  1.00 10.00 LIG 0.33  C 
BRANCH 6 7
ATOM      7  N   GLY A 501      -3.701  32.202  -6.295  1.00 10.00 LIG-0.07  N 
ATOM      8 H1   GLY A 501      -4.438  32.550  -5.937  1.00 10.00 LIG 0.27  HD
ATOM      9 H2   GLY A 501      -2.996  32.692  -6.057  1.00 10.00 LIG 0.27  HD
ATOM     10 H3   GLY A 501      -3.774  32.201  -7.182  1.00 10.00 LIG 0.27  HD
ENDBRANCH 6 7
ENDBRANCH 3 6
ENDBRANCH 1 2
BRANCH 1 11
ATOM     11  C   TYR A 502      -0.914  29.699  -8.909  1.00 10.00 LIG 0.20  C 
ATOM     12 O    TYR A 502      -0.333  28.604  -8.947  1.00 10.00 LIG-0.65  OA
ATOM     13 OXT  TYR A 502      -0.327  30.825  -8.545  1.00 10.00 LIG-0.65  OA
ENDBRANCH 1 11
BRANCH 1 14
ATOM     14  CB  TYR A 502      -2.688  30.641 -10.567  1.00 10.00 LIG 0.07  C 
BRANCH 14 15
ATOM     15  CG  TYR A 502      -2.456  29.846 -11.858  1.00 10.00 LIG-0.06  A 
ATOM     16  CD1 TYR A 502      -1.359  30.204 -12.660  1.00 10.00 LIG 0.01  A 
ATOM     17  CE1 TYR A 502      -1.135  29.464 -13.893  1.00 10.00 LIG 0.04  A 
ATOM     18  CZ  TYR A 502      -2.021  28.510 -14.263  1.00 10.00 LIG 0.07  A 
ATOM     19  CE2 TYR A 502      -3.117  28.136 -13.475  1.00 10.00 LIG 0.04  A 
ATOM     20  CD2 TYR A 502      -3.325  28.866 -12.268  1.00 10.00 LIG 0.01  A 
BRANCH 18 21
ATOM     21 OH   TYR A 502      -1.825  27.825 -15.441  1.00 10.00 LIG-0.36  OA
ATOM     22 HH   TYR A 502      -1.818  28.367 -16.083  1.00 10.00 LIG 0.22  HD
ENDBRANCH 18 21
ENDBRANCH 14 15
ENDBRANCH 1 14
TORSDOF 7
ENDMDL
MODEL 2
USER: ADFR SOLUTION from run 125
USER: SCORE 10.680635 LL:  -0.977 LR:  -9.703 RR:   0.000 FEB:  -7.615
USER: RMSD 2.092023
USER: SEED 124
USER: STATUS no improvement in best 2 clusters for 5 generations
USER: GENES 9
USER: genes 0 Translation |==|  0.49040 0.50304 0.56624
USER: genes 1 Rotation |==|  0.53053 0.43022 0.42611 0.98861
USER: genes 2 Torsion [C]-CA--N-[C] |==|  0.80736
USER: genes 3 Torsion [N]-C--CA-[N] |==|  0.90690
USER: genes 4 Torsion [C]-CA--N-[H1] |==|  0.56061
USER: genes 5 Torsion [N]-CA--C-[O] |==|  0.16738
USER: genes 6 Torsion [N]-CA--CB-[CG] |==|  0.67531
USER: genes 7 Torsion [CA]-CB--CG-[CD1] |==|  0.69381
USER: genes 8 Torsion [CE1]-CZ--OH-[HH] |==|  0.55653
ROOT
ATOM      1  CA  TYR A 502      -2.488  29.791  -7.683  1.00 10.00 LIG 0.19  C 
ENDROOT
BRANCH 1 2
ATOM      2  N   TYR A 502      -3.560  30.230  -6.782  1.00 10.00 LIG-0.34  N 
ATOM      3  C   GLY A 501      -4.104  29.393  -5.918  1.00 10.00 LIG 0.24  C 
ATOM      4 O    GLY A 501      -3.799  28.193  -5.832  1.00 10.00 LIG-0.27  OA
ATOM      5 H    TYR A 502      -3.789  31.054  -6.870  1.00 10.00 LIG 0.16  HD
BRANCH 3 6
ATOM      6  CA  GLY A 501      -5.164  29.998  -5.002  1.00 10.00 LIG 0.33  C 
BRANCH 6 7
ATOM      7  N   GLY A 501      -4.818  31.397  -4.702  1.00 10.00 LIG-0.07  N 
ATOM      8 H1   GLY A 501      -5.225  31.650  -3.952  1.00 10.00 LIG 0.27  HD
ATOM      9 H2   GLY A 501      -3.936  31.469  -4.600  1.00 10.00 LIG 0.27  HD
ATOM     10 H3   GLY A 501      -5.082  31.918  -5.373  1.00 10.00 LIG 0.27  HD
ENDBRANCH 6 7
ENDBRANCH 3 6
ENDBRANCH 1 2
BRANCH 1 11
ATOM     11  C   TYR A 502      -1.328  29.581  -6.704  1.00 10.00 LIG 0.20  C 
ATOM     12 O    TYR A 502      -1.415  28.761  -5.777  1.00 10.00 LIG-0.65  OA
ATOM     13 OXT  TYR A 502      -0.258  30.323  -6.925  1.00 10.00 LIG-0.65  OA
ENDBRANCH 1 11
BRANCH 1 14
ATOM     14  CB  TYR A 502      -2.268  30.869  -8.763  1.00 10.00 LIG 0.07  C 
BRANCH 14 15
ATOM     15  CG  TYR A 502      -2.572  30.366 -10.180  1.00 10.00 LIG-0.06  A 
ATOM     16  CD1 TYR A 502      -1.490  30.194 -11.060  1.00 10.00 LIG 0.01  A 
ATOM     17  CE1 TYR A 502      -1.767  29.728 -12.410  1.00 10.00 LIG 0.04  A 
ATOM     18  CZ  TYR A 502      -3.051  29.544 -12.798  1.00 10.00 LIG 0.07  A 
ATOM     19  CE2 TYR A 502      -4.141  29.706 -11.934  1.00 10.00 LIG 0.04  A 
ATOM     20  CD2 TYR A 502      -3.858  30.161 -10.612  1.00 10.00 LIG 0.01  A 
BRANCH 18 21
ATOM     21 OH   TYR A 502      -3.317  29.127 -14.083  1.00 10.00 LIG-0.36  OA
ATOM     22 HH   TYR A 502      -4.111  29.315 -14.280  1.00 10.00 LIG 0.22  HD
ENDBRANCH 18 21
ENDBRANCH 14 15
ENDBRANCH 1 14
TORSDOF 7
ENDMDL
