MODEL 1
USER: ADFR SOLUTION from run 30
USER: SCORE 7.767228 LL:  -1.124 LR:  -7.455 RR:   0.000 FEB:  -4.174
USER: RMSD 1.709867
USER: SEED 29
USER: STATUS 1 or 2 clusters left
USER: GENES 13
USER: genes 0 Translation |==|  0.53378 0.44344 0.58609
USER: genes 1 Rotation |==|  0.44202 0.41746 0.45806 0.98792
USER: genes 2 Torsion [C]-N--CA-[CB] |==|  0.18570
USER: genes 3 Torsion [N]-CA--C-[N] |==|  0.52945
USER: genes 4 Torsion [C]-N--CA-[C] |==|  0.20399
USER: genes 5 Torsion [N]-CA--C-[OXT] |==|  0.77232
USER: genes 6 Torsion [N]-CA--CB-[OG] |==|  0.87046
USER: genes 7 Torsion [CA]-CB--OG-[HG] |==|  0.76752
USER: genes 8 Torsion [N]-C--CA-[N] |==|  0.72359
USER: genes 9 Torsion [C]-CA--N-[H1] |==|  0.65107
USER: genes 10 Torsion [C]-CA--CB-[CG] |==|  0.59277
USER: genes 11 Torsion [CA]-CB--CG-[SD] |==|  0.50498
USER: genes 12 Torsion [CB]-CG--SD-[CE] |==|  0.06680
ROOT
ATOM      1  C   MET F   1       3.163  59.463  81.803  1.00 63.86 LIG 0.25  C 
ATOM      2 O    MET F   1       3.493  58.307  81.519  1.00 63.40 LIG-0.27  OA
ATOM      3  N   ALA F   2       3.017  60.411  80.877  1.00107.99 LIG-0.35  N 
ATOM      4 H    ALA F   2       2.776  61.219  81.046  1.00107.99 LIG 0.16  HD
ENDROOT
BRANCH 3 5
ATOM      5  CA  ALA F   2       3.265  60.131  79.465  1.00108.71 LIG 0.17  C 
ATOM      6  CB  ALA F   2       2.222  59.151  78.924  1.00102.49 LIG 0.04  C 
BRANCH 5 7
ATOM      7  C   ALA F   2       3.275  61.387  78.605  1.00108.72 LIG 0.24  C 
ATOM      8  N   SER F   3       3.275  61.160  77.294  1.00165.57 LIG-0.34  N 
ATOM      9 H    SER F   3       3.275  60.369  76.958  1.00165.57 LIG 0.16  HD
ATOM     10 O    ALA F   2       3.275  62.511  79.111  1.00108.45 LIG-0.27  OA
BRANCH 8 11
ATOM     11  CA  SER F   3       3.275  62.217  76.292  1.00165.78 LIG 0.21  C 
BRANCH 11 12
ATOM     12  C   SER F   3       4.626  62.922  76.176  1.00165.56 LIG 0.20  C 
ATOM     13 O    SER F   3       5.397  62.660  75.251  1.00164.94 LIG-0.65  OA
ATOM     14 OXT  SER F   3       4.920  63.823  76.982  1.00118.74 LIG-0.65  OA
ENDBRANCH 11 12
BRANCH 11 15
ATOM     15  CB  SER F   3       2.177  63.230  76.625  1.00113.97 LIG 0.20  C 
BRANCH 15 16
ATOM     16 OG   SER F   3       0.952  62.578  76.939  1.00114.22 LIG-0.40  OA
ATOM     17 HG   SER F   3       0.541  62.397  76.229  1.00114.22 LIG 0.21  HD
ENDBRANCH 15 16
ENDBRANCH 11 15
ENDBRANCH 8 11
ENDBRANCH 5 7
ENDBRANCH 3 5
BRANCH 1 18
ATOM     18  CA  MET F   1       2.866  59.871  83.258  1.00 62.90 LIG 0.28  C 
BRANCH 18 19
ATOM     19  N   MET F   1       4.036  60.179  84.068  1.00 61.98 LIG-0.07  N 
ATOM     20 H1   MET F   1       4.025  59.682  84.807  1.00 61.98 LIG 0.28  HD
ATOM     21 H2   MET F   1       4.775  60.002  83.602  1.00 61.98 LIG 0.28  HD
ATOM     22 H3   MET F   1       4.025  61.041  84.290  1.00 61.98 LIG 0.28  HD
ENDBRANCH 18 19
BRANCH 18 23
ATOM     23  CB  MET F   1       1.890  61.054  83.276  1.00 75.38 LIG 0.05  C 
BRANCH 23 24
ATOM     24  CG  MET F   1       2.110  62.033  84.433  1.00 74.73 LIG 0.08  C 
BRANCH 24 25
ATOM     25 SD   MET F   1       0.904  63.409  84.470  1.00 74.60 LIG-0.17  SA
ATOM     26  CE  MET F   1      -0.453  62.717  83.602  1.00 70.92 LIG 0.09  C 
ENDBRANCH 24 25
ENDBRANCH 23 24
ENDBRANCH 18 23
ENDBRANCH 1 18
TORSDOF 11
ENDMDL
MODEL 2
USER: ADFR SOLUTION from run 86
USER: SCORE 7.954223 LL:  -1.111 LR:  -7.061 RR:   0.000 FEB:  -3.780
USER: RMSD 2.404304
USER: SEED 85
USER: STATUS no improvement in best 2 clusters for 5 generations
USER: GENES 13
USER: genes 0 Translation |==|  0.53324 0.44344 0.58627
USER: genes 1 Rotation |==|  0.39419 0.43393 0.44711 0.98129
USER: genes 2 Torsion [C]-N--CA-[CB] |==|  0.16639
USER: genes 3 Torsion [N]-CA--C-[N] |==|  0.09037
USER: genes 4 Torsion [C]-N--CA-[C] |==|  0.18397
USER: genes 5 Torsion [N]-CA--C-[OXT] |==|  0.89613
USER: genes 6 Torsion [N]-CA--CB-[OG] |==|  0.66722
USER: genes 7 Torsion [CA]-CB--OG-[HG] |==|  0.62574
USER: genes 8 Torsion [N]-C--CA-[N] |==|  0.68366
USER: genes 9 Torsion [C]-CA--N-[H1] |==|  0.34870
USER: genes 10 Torsion [C]-CA--CB-[CG] |==|  0.47017
USER: genes 11 Torsion [CA]-CB--CG-[SD] |==|  0.58338
USER: genes 12 Torsion [CB]-CG--SD-[CE] |==|  0.04686
ROOT
ATOM      1  C   MET F   1       3.147  59.463  81.808  1.00 63.86 LIG 0.25  C 
ATOM      2 O    MET F   1       3.363  58.250  81.716  1.00 63.40 LIG-0.27  OA
ATOM      3  N   ALA F   2       3.003  60.246  80.739  1.00107.99 LIG-0.35  N 
ATOM      4 H    ALA F   2       2.840  61.089  80.775  1.00107.99 LIG 0.16  HD
ENDROOT
BRANCH 3 5
ATOM      5  CA  ALA F   2       3.117  59.704  79.387  1.00108.71 LIG 0.17  C 
ATOM      6  CB  ALA F   2       2.066  58.617  79.156  1.00102.49 LIG 0.04  C 
BRANCH 5 7
ATOM      7  C   ALA F   2       2.989  60.771  78.309  1.00108.72 LIG 0.24  C 
ATOM      8  N   SER F   3       3.462  61.966  78.654  1.00165.57 LIG-0.34  N 
ATOM      9 H    SER F   3       3.809  62.125  79.425  1.00165.57 LIG 0.16  HD
ATOM     10 O    ALA F   2       2.488  60.519  77.211  1.00108.45 LIG-0.27  OA
BRANCH 8 11
ATOM     11  CA  SER F   3       3.448  63.125  77.774  1.00165.78 LIG 0.21  C 
BRANCH 11 12
ATOM     12  C   SER F   3       2.034  63.615  77.464  1.00165.56 LIG 0.20  C 
ATOM     13 O    SER F   3       1.805  64.815  77.297  1.00164.94 LIG-0.65  OA
ATOM     14 OXT  SER F   3       1.118  62.789  77.306  1.00118.74 LIG-0.65  OA
ENDBRANCH 11 12
BRANCH 11 15
ATOM     15  CB  SER F   3       4.185  62.785  76.476  1.00113.97 LIG 0.20  C 
BRANCH 15 16
ATOM     16 OG   SER F   3       5.303  63.643  76.277  1.00114.22 LIG-0.40  OA
ATOM     17 HG   SER F   3       5.313  63.909  75.481  1.00114.22 LIG 0.21  HD
ENDBRANCH 15 16
ENDBRANCH 11 15
ENDBRANCH 8 11
ENDBRANCH 5 7
ENDBRANCH 3 5
BRANCH 1 18
ATOM     18  CA  MET F   1       2.997  60.142  83.182  1.00 62.90 LIG 0.28  C 
BRANCH 18 19
ATOM     19  N   MET F   1       4.208  60.183  83.990  1.00 61.98 LIG-0.07  N 
ATOM     20 H1   MET F   1       4.376  61.024  84.230  1.00 61.98 LIG 0.28  HD
ATOM     21 H2   MET F   1       4.096  59.684  84.719  1.00 61.98 LIG 0.28  HD
ATOM     22 H3   MET F   1       4.891  59.868  83.516  1.00 61.98 LIG 0.28  HD
ENDBRANCH 18 19
BRANCH 18 23
ATOM     23  CB  MET F   1       2.437  61.558  83.003  1.00 75.38 LIG 0.05  C 
BRANCH 23 24
ATOM     24  CG  MET F   1       2.003  62.232  84.308  1.00 74.73 LIG 0.08  C 
BRANCH 24 25
ATOM     25 SD   MET F   1       0.627  63.422  84.099  1.00 74.60 LIG-0.17  SA
ATOM     26  CE  MET F   1      -0.002  62.965  82.527  1.00 70.92 LIG 0.09  C 
ENDBRANCH 24 25
ENDBRANCH 23 24
ENDBRANCH 18 23
ENDBRANCH 1 18
TORSDOF 11
ENDMDL
MODEL 3
USER: ADFR SOLUTION from run 143
USER: SCORE 6.976374 LL:  -1.602 LR:  -6.527 RR:   0.000 FEB:  -3.246
USER: RMSD 3.042353
USER: SEED 142
USER: STATUS no improvement in best 2 clusters for 5 generations
USER: GENES 13
USER: genes 0 Translation |==|  0.53363 0.47433 0.58074
USER: genes 1 Rotation |==|  0.55667 0.41931 0.73219 0.93170
USER: genes 2 Torsion [C]-N--CA-[CB] |==|  0.21599
USER: genes 3 Torsion [N]-CA--C-[N] |==|  0.45020
USER: genes 4 Torsion [C]-N--CA-[C] |==|  0.74741
USER: genes 5 Torsion [N]-CA--C-[OXT] |==|  0.97682
USER: genes 6 Torsion [N]-CA--CB-[OG] |==|  0.99459
USER: genes 7 Torsion [CA]-CB--OG-[HG] |==|  0.35728
USER: genes 8 Torsion [N]-C--CA-[N] |==|  0.55001
USER: genes 9 Torsion [C]-CA--N-[H1] |==|  0.28570
USER: genes 10 Torsion [C]-CA--CB-[CG] |==|  0.79936
USER: genes 11 Torsion [CA]-CB--CG-[SD] |==|  0.35853
USER: genes 12 Torsion [CB]-CG--SD-[CE] |==|  0.21208
ROOT
ATOM      1  C   MET F   1       3.159  60.390  81.642  1.00 63.86 LIG 0.25  C 
ATOM      2 O    MET F   1       4.282  60.352  81.130  1.00 63.40 LIG-0.27  OA
ATOM      3  N   ALA F   2       2.070  60.725  80.951  1.00107.99 LIG-0.35  N 
ATOM      4 H    ALA F   2       1.276  60.747  81.279  1.00107.99 LIG 0.16  HD
ENDROOT
BRANCH 3 5
ATOM      5  CA  ALA F   2       2.157  61.092  79.539  1.00108.71 LIG 0.17  C 
ATOM      6  CB  ALA F   2       2.304  59.841  78.670  1.00102.49 LIG 0.04  C 
BRANCH 5 7
ATOM      7  C   ALA F   2       0.959  61.902  79.063  1.00108.72 LIG 0.24  C 
ATOM      8  N   SER F   3       1.156  62.566  77.927  1.00165.57 LIG-0.34  N 
ATOM      9 H    SER F   3       1.900  62.545  77.498  1.00165.57 LIG 0.16  HD
ATOM     10 O    ALA F   2      -0.099  61.916  79.697  1.00108.45 LIG-0.27  OA
BRANCH 8 11
ATOM     11  CA  SER F   3       0.142  63.395  77.290  1.00165.78 LIG 0.21  C 
BRANCH 11 12
ATOM     12  C   SER F   3      -0.708  62.621  76.284  1.00165.56 LIG 0.20  C 
ATOM     13 O    SER F   3      -1.662  63.159  75.719  1.00164.94 LIG-0.65  OA
ATOM     14 OXT  SER F   3      -0.391  61.458  75.976  1.00118.74 LIG-0.65  OA
ENDBRANCH 11 12
BRANCH 11 15
ATOM     15  CB  SER F   3       0.819  64.585  76.605  1.00113.97 LIG 0.20  C 
BRANCH 15 16
ATOM     16 OG   SER F   3       2.226  64.571  76.819  1.00114.22 LIG-0.40  OA
ATOM     17 HG   SER F   3       2.622  64.645  76.083  1.00114.22 LIG 0.21  HD
ENDBRANCH 15 16
ENDBRANCH 11 15
ENDBRANCH 8 11
ENDBRANCH 5 7
ENDBRANCH 3 5
BRANCH 1 18
ATOM     18  CA  MET F   1       2.946  60.013  83.120  1.00 62.90 LIG 0.28  C 
BRANCH 18 19
ATOM     19  N   MET F   1       4.142  60.051  83.949  1.00 61.98 LIG-0.07  N 
ATOM     20 H1   MET F   1       4.137  60.791  84.445  1.00 61.98 LIG 0.28  HD
ATOM     21 H2   MET F   1       4.158  59.337  84.482  1.00 61.98 LIG 0.28  HD
ATOM     22 H3   MET F   1       4.864  60.048  83.429  1.00 61.98 LIG 0.28  HD
ENDBRANCH 18 19
BRANCH 18 23
ATOM     23  CB  MET F   1       1.856  60.903  83.730  1.00 75.38 LIG 0.05  C 
BRANCH 23 24
ATOM     24  CG  MET F   1       2.289  62.354  83.966  1.00 74.73 LIG 0.08  C 
BRANCH 24 25
ATOM     25 SD   MET F   1       1.128  63.588  83.272  1.00 74.60 LIG-0.17  SA
ATOM     26  CE  MET F   1      -0.177  63.547  84.442  1.00 70.92 LIG 0.09  C 
ENDBRANCH 24 25
ENDBRANCH 23 24
ENDBRANCH 18 23
ENDBRANCH 1 18
TORSDOF 11
ENDMDL
MODEL 4
USER: ADFR SOLUTION from run 128
USER: SCORE 6.177510 LL:  -1.430 LR:  -5.901 RR:   0.000 FEB:  -2.619
USER: RMSD 1.971616
USER: SEED 127
USER: STATUS no improvement in best 3 clusters for 5 generations
USER: GENES 13
USER: genes 0 Translation |==|  0.52347 0.47507 0.54920
USER: genes 1 Rotation |==|  0.48763 0.55320 0.36279 0.97769
USER: genes 2 Torsion [C]-N--CA-[CB] |==|  0.26889
USER: genes 3 Torsion [N]-CA--C-[N] |==|  0.62122
USER: genes 4 Torsion [C]-N--CA-[C] |==|  0.67402
USER: genes 5 Torsion [N]-CA--C-[OXT] |==|  0.74987
USER: genes 6 Torsion [N]-CA--CB-[OG] |==|  0.04234
USER: genes 7 Torsion [CA]-CB--OG-[HG] |==|  0.24532
USER: genes 8 Torsion [N]-C--CA-[N] |==|  0.73549
USER: genes 9 Torsion [C]-CA--N-[H1] |==|  0.30488
USER: genes 10 Torsion [C]-CA--CB-[CG] |==|  0.33078
USER: genes 11 Torsion [CA]-CB--CG-[SD] |==|  0.57585
USER: genes 12 Torsion [CB]-CG--SD-[CE] |==|  0.20614
ROOT
ATOM      1  C   MET F   1       2.854  60.412  80.696  1.00 63.86 LIG 0.25  C 
ATOM      2 O    MET F   1       2.494  59.395  80.094  1.00 63.40 LIG-0.27  OA
ATOM      3  N   ALA F   2       2.811  61.622  80.141  1.00107.99 LIG-0.35  N 
ATOM      4 H    ALA F   2       3.043  62.347  80.541  1.00107.99 LIG 0.16  HD
ENDROOT
BRANCH 3 5
ATOM      5  CA  ALA F   2       2.351  61.806  78.766  1.00108.71 LIG 0.17  C 
ATOM      6  CB  ALA F   2       0.875  62.208  78.746  1.00102.49 LIG 0.04  C 
BRANCH 5 7
ATOM      7  C   ALA F   2       3.168  62.837  78.001  1.00108.72 LIG 0.24  C 
ATOM      8  N   SER F   3       2.447  63.682  77.269  1.00165.57 LIG-0.34  N 
ATOM      9 H    SER F   3       1.589  63.647  77.226  1.00165.57 LIG 0.16  HD
ATOM     10 O    ALA F   2       4.399  62.867  78.078  1.00108.45 LIG-0.27  OA
BRANCH 8 11
ATOM     11  CA  SER F   3       3.025  64.751  76.466  1.00165.78 LIG 0.21  C 
BRANCH 11 12
ATOM     12  C   SER F   3       2.586  66.141  76.927  1.00165.56 LIG 0.20  C 
ATOM     13 O    SER F   3       3.272  66.787  77.720  1.00164.94 LIG-0.65  OA
ATOM     14 OXT  SER F   3       1.563  66.655  76.441  1.00118.74 LIG-0.65  OA
ENDBRANCH 11 12
BRANCH 11 15
ATOM     15  CB  SER F   3       2.650  64.540  74.997  1.00113.97 LIG 0.20  C 
BRANCH 15 16
ATOM     16 OG   SER F   3       1.588  63.602  74.866  1.00114.22 LIG-0.40  OA
ATOM     17 HG   SER F   3       0.852  64.003  74.912  1.00114.22 LIG 0.21  HD
ENDBRANCH 15 16
ENDBRANCH 11 15
ENDBRANCH 8 11
ENDBRANCH 5 7
ENDBRANCH 3 5
BRANCH 1 18
ATOM     18  CA  MET F   1       3.347  60.341  82.153  1.00 62.90 LIG 0.28  C 
BRANCH 18 19
ATOM     19  N   MET F   1       4.763  60.042  82.315  1.00 61.98 LIG-0.07  N 
ATOM     20 H1   MET F   1       5.188  60.766  82.612  1.00 61.98 LIG 0.28  HD
ATOM     21 H2   MET F   1       4.862  59.379  82.902  1.00 61.98 LIG 0.28  HD
ATOM     22 H3   MET F   1       5.107  59.798  81.531  1.00 61.98 LIG 0.28  HD
ENDBRANCH 18 19
BRANCH 18 23
ATOM     23  CB  MET F   1       2.999  61.645  82.883  1.00 75.38 LIG 0.05  C 
BRANCH 23 24
ATOM     24  CG  MET F   1       2.072  61.461  84.088  1.00 74.73 LIG 0.08  C 
BRANCH 24 25
ATOM     25 SD   MET F   1       1.050  62.934  84.459  1.00 74.60 LIG-0.17  SA
ATOM     26  CE  MET F   1      -0.139  62.876  83.171  1.00 70.92 LIG 0.09  C 
ENDBRANCH 24 25
ENDBRANCH 23 24
ENDBRANCH 18 23
ENDBRANCH 1 18
TORSDOF 11
ENDMDL
MODEL 5
USER: ADFR SOLUTION from run 79
USER: SCORE 6.387475 LL:  -1.504 LR:  -5.874 RR:   0.000 FEB:  -2.593
USER: RMSD 2.130920
USER: SEED 78
USER: STATUS no improvement in best 2 clusters for 5 generations
USER: GENES 13
USER: genes 0 Translation |==|  0.53553 0.46357 0.55387
USER: genes 1 Rotation |==|  0.46681 0.45635 0.45226 0.99469
USER: genes 2 Torsion [C]-N--CA-[CB] |==|  0.20022
USER: genes 3 Torsion [N]-CA--C-[N] |==|  0.48971
USER: genes 4 Torsion [C]-N--CA-[C] |==|  0.53447
USER: genes 5 Torsion [N]-CA--C-[OXT] |==|  0.84955
USER: genes 6 Torsion [N]-CA--CB-[OG] |==|  0.12237
USER: genes 7 Torsion [CA]-CB--OG-[HG] |==|  0.13982
USER: genes 8 Torsion [N]-C--CA-[N] |==|  0.67411
USER: genes 9 Torsion [C]-CA--N-[H1] |==|  0.51927
USER: genes 10 Torsion [C]-CA--CB-[CG] |==|  0.44933
USER: genes 11 Torsion [CA]-CB--CG-[SD] |==|  0.54433
USER: genes 12 Torsion [CB]-CG--SD-[CE] |==|  0.10827
ROOT
ATOM      1  C   MET F   1       3.216  60.067  80.836  1.00 63.86 LIG 0.25  C 
ATOM      2 O    MET F   1       3.466  58.948  80.377  1.00 63.40 LIG-0.27  OA
ATOM      3  N   ALA F   2       2.968  61.119  80.057  1.00107.99 LIG-0.35  N 
ATOM      4 H    ALA F   2       2.778  61.905  80.350  1.00107.99 LIG 0.16  HD
ENDROOT
BRANCH 3 5
ATOM      5  CA  ALA F   2       3.002  61.004  78.600  1.00108.71 LIG 0.17  C 
ATOM      6  CB  ALA F   2       1.790  60.217  78.099  1.00102.49 LIG 0.04  C 
BRANCH 5 7
ATOM      7  C   ALA F   2       3.054  62.355  77.901  1.00108.72 LIG 0.24  C 
ATOM      8  N   SER F   3       3.164  62.288  76.577  1.00165.57 LIG-0.34  N 
ATOM      9 H    SER F   3       3.208  61.544  76.149  1.00165.57 LIG 0.16  HD
ATOM     10 O    ALA F   2       2.991  63.410  78.536  1.00108.45 LIG-0.27  OA
BRANCH 8 11
ATOM     11  CA  SER F   3       3.223  63.458  75.712  1.00165.78 LIG 0.21  C 
BRANCH 11 12
ATOM     12  C   SER F   3       3.045  63.112  74.234  1.00165.56 LIG 0.20  C 
ATOM     13 O    SER F   3       2.229  63.719  73.538  1.00164.94 LIG-0.65  OA
ATOM     14 OXT  SER F   3       3.782  62.257  73.710  1.00118.74 LIG-0.65  OA
ENDBRANCH 11 12
BRANCH 11 15
ATOM     15  CB  SER F   3       4.555  64.181  75.928  1.00113.97 LIG 0.20  C 
BRANCH 15 16
ATOM     16 OG   SER F   3       5.639  63.259  75.983  1.00114.22 LIG-0.40  OA
ATOM     17 HG   SER F   3       5.601  62.743  75.321  1.00114.22 LIG 0.21  HD
ENDBRANCH 15 16
ENDBRANCH 11 15
ENDBRANCH 8 11
ENDBRANCH 5 7
ENDBRANCH 3 5
BRANCH 1 18
ATOM     18  CA  MET F   1       3.143  60.304  82.356  1.00 62.90 LIG 0.28  C 
BRANCH 18 19
ATOM     19  N   MET F   1       4.391  60.097  83.077  1.00 61.98 LIG-0.07  N 
ATOM     20 H1   MET F   1       4.241  60.155  83.953  1.00 61.98 LIG 0.28  HD
ATOM     21 H2   MET F   1       4.715  59.290  82.885  1.00 61.98 LIG 0.28  HD
ATOM     22 H3   MET F   1       4.980  60.719  82.836  1.00 61.98 LIG 0.28  HD
ENDBRANCH 18 19
BRANCH 18 23
ATOM     23  CB  MET F   1       2.603  61.712  82.635  1.00 75.38 LIG 0.05  C 
BRANCH 23 24
ATOM     24  CG  MET F   1       2.075  61.911  84.059  1.00 74.73 LIG 0.08  C 
BRANCH 24 25
ATOM     25 SD   MET F   1       1.030  63.401  84.254  1.00 74.60 LIG-0.17  SA
ATOM     26  CE  MET F   1       0.119  63.395  82.755  1.00 70.92 LIG 0.09  C 
ENDBRANCH 24 25
ENDBRANCH 23 24
ENDBRANCH 18 23
ENDBRANCH 1 18
TORSDOF 11
ENDMDL
