MODEL 1
USER: ADFR SOLUTION from run 81
USER: SCORE 12.426714 LL:  -1.355 LR: -11.072 RR:   0.000 FEB:  -8.984
USER: RMSD 1.201375
USER: SEED 80
USER: STATUS no improvement in best 2 clusters for 5 generations
USER: GENES 9
USER: genes 0 Translation |==|  0.45952 0.50356 0.45932
USER: genes 1 Rotation |==|  0.55301 0.49118 0.49459 0.99707
USER: genes 2 Torsion [N]-C--CA-[N] |==|  0.37715
USER: genes 3 Torsion [C]-CA--N-[H1] |==|  0.09503
USER: genes 4 Torsion [C]-CA--CB-[CG2] |==|  0.08826
USER: genes 5 Torsion [CA]-CB--CG1-[CD1] |==|  0.77051
USER: genes 6 Torsion [C]-N--CA-[C] |==|  0.69937
USER: genes 7 Torsion [N]-CA--C-[O] |==|  0.33970
USER: genes 8 Torsion [N]-CA--CB-[CG1] |==|  0.52371
ROOT
ATOM      1  C   ILE Z1016      20.146  65.097  12.530  1.00 25.98 LIG 0.25  C 
ATOM      2 O    ILE Z1016      20.248  64.990  11.272  1.00 25.98 LIG-0.27  OA
ATOM      3  N   VAL Z1017      21.140  65.387  13.403  1.00 26.46 LIG-0.34  N 
ATOM      4 H    VAL Z1017      20.986  65.572  14.229  1.00 26.46 LIG 0.16  HD
ENDROOT
BRANCH 1 5
ATOM      5  CA  ILE Z1016      18.734  64.990  13.133  1.00 25.98 LIG 0.28  C 
BRANCH 5 6
ATOM      6  N   ILE Z1016      17.790  65.707  12.250  1.00 25.98 LIG-0.07  N 
ATOM      7 H1   ILE Z1016      18.048  65.617  11.403  1.00 25.98 LIG 0.28  HD
ATOM      8 H2   ILE Z1016      16.973  65.365  12.348  1.00 25.98 LIG 0.28  HD
ATOM      9 H3   ILE Z1016      17.777  66.570  12.466  1.00 25.98 LIG 0.28  HD
ENDBRANCH 5 6
BRANCH 5 10
ATOM     10  CB  ILE Z1016      18.369  63.476  13.319  1.00 25.98 LIG 0.02  C 
ATOM     11  CG2 ILE Z1016      19.627  62.628  13.626  1.00 20.29 LIG 0.01  C 
BRANCH 10 12
ATOM     12  CG1 ILE Z1016      17.235  63.162  14.362  1.00 20.29 LIG 0.00  C 
ATOM     13  CD1 ILE Z1016      17.808  63.124  15.798  1.00 20.29 LIG 0.01  C 
ENDBRANCH 10 12
ENDBRANCH 5 10
ENDBRANCH 1 5
BRANCH 3 14
ATOM     14  CA  VAL Z1017      22.607  65.427  13.059  1.00 26.46 LIG 0.19  C 
BRANCH 14 15
ATOM     15  C   VAL Z1017      23.393  64.249  13.650  1.00 26.46 LIG 0.20  C 
ATOM     16 O    VAL Z1017      24.035  63.490  12.865  1.00 26.46 LIG-0.65  OA
ATOM     17 OXT  VAL Z1017      23.703  64.244  14.875  1.00 31.30 LIG-0.65  OA
ENDBRANCH 14 15
BRANCH 14 18
ATOM     18  CB  VAL Z1017      23.269  66.635  13.655  1.00 26.46 LIG 0.01  C 
ATOM     19  CG1 VAL Z1017      24.682  66.700  13.078  1.00 20.78 LIG 0.01  C 
ATOM     20  CG2 VAL Z1017      22.494  67.931  13.377  1.00 20.78 LIG 0.01  C 
ENDBRANCH 14 18
ENDBRANCH 3 14
TORSDOF 7
ENDMDL
MODEL 2
USER: ADFR SOLUTION from run 66
USER: SCORE 11.814305 LL:  -1.180 LR: -10.634 RR:   0.000 FEB:  -8.546
USER: RMSD 1.727971
USER: SEED 65
USER: STATUS no improvement in best 2 clusters for 5 generations
USER: GENES 9
USER: genes 0 Translation |==|  0.50425 0.50747 0.47265
USER: genes 1 Rotation |==|  0.53020 0.49641 0.49037 0.99898
USER: genes 2 Torsion [N]-C--CA-[N] |==|  0.24768
USER: genes 3 Torsion [C]-CA--N-[H1] |==|  0.67263
USER: genes 4 Torsion [C]-CA--CB-[CG2] |==|  0.47350
USER: genes 5 Torsion [CA]-CB--CG1-[CD1] |==|  0.69951
USER: genes 6 Torsion [C]-N--CA-[C] |==|  0.70830
USER: genes 7 Torsion [N]-CA--C-[O] |==|  0.96816
USER: genes 8 Torsion [N]-CA--CB-[CG1] |==|  0.61454
ROOT
ATOM      1  C   ILE Z1016      21.487  65.214  12.929  1.00 25.98 LIG 0.25  C 
ATOM      2 O    ILE Z1016      21.558  64.992  11.685  1.00 25.98 LIG-0.27  OA
ATOM      3  N   VAL Z1017      22.507  65.566  13.750  1.00 26.46 LIG-0.34  N 
ATOM      4 H    VAL Z1017      22.376  65.827  14.559  1.00 26.46 LIG 0.16  HD
ENDROOT
BRANCH 1 5
ATOM      5  CA  ILE Z1016      20.089  65.187  13.573  1.00 25.98 LIG 0.28  C 
BRANCH 5 6
ATOM      6  N   ILE Z1016      19.485  66.530  13.441  1.00 25.98 LIG-0.07  N 
ATOM      7 H1   ILE Z1016      19.338  66.870  14.250  1.00 25.98 LIG 0.28  HD
ATOM      8 H2   ILE Z1016      20.040  67.062  12.992  1.00 25.98 LIG 0.28  HD
ATOM      9 H3   ILE Z1016      18.714  66.467  13.001  1.00 25.98 LIG 0.28  HD
ENDBRANCH 5 6
BRANCH 5 10
ATOM     10  CB  ILE Z1016      19.234  64.061  12.892  1.00 25.98 LIG 0.02  C 
ATOM     11  CG2 ILE Z1016      17.907  63.827  13.653  1.00 20.29 LIG 0.01  C 
BRANCH 10 12
ATOM     12  CG1 ILE Z1016      18.955  64.240  11.355  1.00 20.29 LIG 0.00  C 
ATOM     13  CD1 ILE Z1016      17.476  64.615  11.108  1.00 20.29 LIG 0.01  C 
ENDBRANCH 10 12
ENDBRANCH 5 10
ENDBRANCH 1 5
BRANCH 3 14
ATOM     14  CA  VAL Z1017      23.965  65.549  13.370  1.00 26.46 LIG 0.19  C 
BRANCH 14 15
ATOM     15  C   VAL Z1017      24.731  64.370  13.986  1.00 26.46 LIG 0.20  C 
ATOM     16 O    VAL Z1017      24.169  63.684  14.890  1.00 26.46 LIG-0.65  OA
ATOM     17 OXT  VAL Z1017      25.715  63.865  13.375  1.00 31.30 LIG-0.65  OA
ENDBRANCH 14 15
BRANCH 14 18
ATOM     18  CB  VAL Z1017      24.677  66.758  13.906  1.00 26.46 LIG 0.01  C 
ATOM     19  CG1 VAL Z1017      25.622  67.242  12.807  1.00 20.78 LIG 0.01  C 
ATOM     20  CG2 VAL Z1017      23.710  67.869  14.339  1.00 20.78 LIG 0.01  C 
ENDBRANCH 14 18
ENDBRANCH 3 14
TORSDOF 7
ENDMDL
MODEL 3
USER: ADFR SOLUTION from run 54
USER: SCORE 11.132299 LL:  -1.246 LR:  -9.887 RR:   0.000 FEB:  -7.799
USER: RMSD 1.916925
USER: SEED 53
USER: STATUS no improvement in best 2 clusters for 5 generations
USER: GENES 9
USER: genes 0 Translation |==|  0.48481 0.48410 0.47400
USER: genes 1 Rotation |==|  0.54476 0.49919 0.39534 0.98687
USER: genes 2 Torsion [N]-C--CA-[N] |==|  0.34220
USER: genes 3 Torsion [C]-CA--N-[H1] |==|  0.67401
USER: genes 4 Torsion [C]-CA--CB-[CG2] |==|  0.09321
USER: genes 5 Torsion [CA]-CB--CG1-[CD1] |==|  0.74492
USER: genes 6 Torsion [C]-N--CA-[C] |==|  0.42239
USER: genes 7 Torsion [N]-CA--C-[O] |==|  0.94596
USER: genes 8 Torsion [N]-CA--CB-[CG1] |==|  0.37270
ROOT
ATOM      1  C   ILE Z1016      20.904  64.513  12.970  1.00 25.98 LIG 0.25  C 
ATOM      2 O    ILE Z1016      20.862  64.367  11.713  1.00 25.98 LIG-0.27  OA
ATOM      3  N   VAL Z1017      21.998  64.403  13.763  1.00 26.46 LIG-0.34  N 
ATOM      4 H    VAL Z1017      21.989  64.638  14.591  1.00 26.46 LIG 0.16  HD
ENDROOT
BRANCH 1 5
ATOM      5  CA  ILE Z1016      19.610  64.962  13.672  1.00 25.98 LIG 0.28  C 
BRANCH 5 6
ATOM      6  N   ILE Z1016      19.110  66.180  13.000  1.00 25.98 LIG-0.07  N 
ATOM      7 H1   ILE Z1016      19.110  66.859  13.576  1.00 25.98 LIG 0.28  HD
ATOM      8 H2   ILE Z1016      19.636  66.376  12.310  1.00 25.98 LIG 0.28  HD
ATOM      9 H3   ILE Z1016      18.280  66.039  12.709  1.00 25.98 LIG 0.28  HD
ENDBRANCH 5 6
BRANCH 5 10
ATOM     10  CB  ILE Z1016      18.577  63.781  13.647  1.00 25.98 LIG 0.02  C 
ATOM     11  CG2 ILE Z1016      19.289  62.411  13.748  1.00 20.29 LIG 0.01  C 
BRANCH 10 12
ATOM     12  CG1 ILE Z1016      17.408  63.865  14.695  1.00 20.29 LIG 0.00  C 
ATOM     13  CD1 ILE Z1016      17.789  63.130  16.000  1.00 20.29 LIG 0.01  C 
ENDBRANCH 10 12
ENDBRANCH 5 10
ENDBRANCH 1 5
BRANCH 3 14
ATOM     14  CA  VAL Z1017      23.336  63.873  13.319  1.00 26.46 LIG 0.19  C 
BRANCH 14 15
ATOM     15  C   VAL Z1017      24.508  64.457  14.119  1.00 26.46 LIG 0.20  C 
ATOM     16 O    VAL Z1017      24.330  65.536  14.759  1.00 26.46 LIG-0.65  OA
ATOM     17 OXT  VAL Z1017      25.485  63.724  14.440  1.00 31.30 LIG-0.65  OA
ENDBRANCH 14 15
BRANCH 14 18
ATOM     18  CB  VAL Z1017      23.633  64.273  11.903  1.00 26.46 LIG 0.01  C 
ATOM     19  CG1 VAL Z1017      25.075  64.779  11.875  1.00 20.78 LIG 0.01  C 
ATOM     20  CG2 VAL Z1017      23.427  63.123  10.908  1.00 20.78 LIG 0.01  C 
ENDBRANCH 14 18
ENDBRANCH 3 14
TORSDOF 7
ENDMDL
