MODEL 1
USER: ADFR SOLUTION from run 33
USER: SCORE 14.851652 LL:  -2.423 LR: -12.663 RR:   0.000 FEB:  -9.978
USER: RMSD 1.259756
USER: SEED 32
USER: STATUS 1 or 2 clusters left
USER: GENES 11
USER: genes 0 Translation |==|  0.56867 0.51505 0.52027
USER: genes 1 Rotation |==|  0.49916 0.51464 0.46633 0.99865
USER: genes 2 Torsion [N]-CA--C-[O] |==|  0.97543
USER: genes 3 Torsion [C]-N--CA-[CB] |==|  0.33819
USER: genes 4 Torsion [N]-CA--CB-[CG] |==|  0.79946
USER: genes 5 Torsion [CA]-CB--CG-[CD1] |==|  0.84621
USER: genes 6 Torsion [CE1]-CZ--OH-[HH] |==|  0.79225
USER: genes 7 Torsion [N]-CA--C-[O] |==|  0.08940
USER: genes 8 Torsion [N]-C--CA-[N] |==|  0.42264
USER: genes 9 Torsion [C]-CA--N-[C] |==|  0.63096
USER: genes 10 Torsion [N]-C--CA-[N] |==|  0.52436
ROOT
ATOM      1  N   PRO P   2     -15.990  25.112  23.488  1.00 14.82 LIG-0.34  N 
ATOM      2  CA  PRO P   2     -15.068  23.978  23.522  1.00 14.93 LIG 0.18  C 
ATOM      3  CB  PRO P   2     -13.714  24.550  23.895  1.00 16.92 LIG 0.04  C 
ATOM      4  CG  PRO P   2     -13.889  26.046  24.006  1.00 18.84 LIG 0.02  C 
ATOM      5  CD  PRO P   2     -15.386  26.344  24.033  1.00 20.22 LIG 0.13  C 
ATOM      6  C   ALA P   3     -17.209  24.969  22.963  1.00 17.18 LIG 0.24  C 
ATOM      7 O    ALA P   3     -17.675  23.896  22.508  1.00 13.58 LIG-0.27  OA
ENDROOT
BRANCH 2 8
ATOM      8  C   PRO P   2     -15.590  22.985  24.542  1.00 18.07 LIG 0.24  C 
ATOM      9  N   TYR P   1     -15.009  21.804  24.576  1.00 10.00 LIG-0.34  N 
ATOM     10 H    TYR P   1     -14.383  21.535  24.051  1.00 10.00 LIG 0.16  HD
ATOM     11 O    PRO P   2     -16.559  23.334  25.282  1.00 18.25 LIG-0.27  OA
BRANCH 9 12
ATOM     12  CA  TYR P   1     -15.461  20.839  25.602  1.00 13.52 LIG 0.19  C 
BRANCH 12 13
ATOM     13  CB  TYR P   1     -15.945  19.586  24.916  1.00 19.13 LIG 0.07  C 
BRANCH 13 14
ATOM     14  CG  TYR P   1     -17.260  19.716  24.192  1.00 19.60 LIG-0.06  A 
ATOM     15  CD1 TYR P   1     -18.425  20.160  24.813  1.00 21.46 LIG 0.01  A 
ATOM     16  CE1 TYR P   1     -19.641  20.246  24.097  1.00 23.96 LIG 0.04  A 
ATOM     17  CZ  TYR P   1     -19.669  19.857  22.769  1.00 27.70 LIG 0.07  A 
ATOM     18  CE2 TYR P   1     -18.509  19.410  22.130  1.00 27.12 LIG 0.04  A 
ATOM     19  CD2 TYR P   1     -17.312  19.329  22.851  1.00 19.18 LIG 0.01  A 
BRANCH 17 20
ATOM     20 OH   TYR P   1     -20.805  19.903  21.998  1.00 32.50 LIG-0.36  OA
ATOM     21 HH   TYR P   1     -21.317  19.274  22.216  1.00 32.50 LIG 0.22  HD
ENDBRANCH 17 20
ENDBRANCH 13 14
ENDBRANCH 12 13
BRANCH 12 22
ATOM     22  C   TYR P   1     -14.315  20.611  26.630  1.00 14.95 LIG 0.20  C 
ATOM     23 O    TYR P   1     -13.550  21.619  26.849  1.00 13.05 LIG-0.65  OA
ATOM     24 OXT  TYR P   1     -13.925  19.452  27.083  1.00 12.36 LIG-0.65  OA
ENDBRANCH 12 22
ENDBRANCH 9 12
ENDBRANCH 2 8
BRANCH 6 25
ATOM     25  CA  ALA P   3     -18.048  26.233  22.990  1.00 19.37 LIG 0.17  C 
ATOM     26  CB  ALA P   3     -18.806  26.283  24.319  1.00 20.42 LIG 0.04  C 
BRANCH 25 27
ATOM     27  N   ALA P   3     -19.019  26.213  21.876  1.00 19.05 LIG-0.35  N 
ATOM     28 H    ALA P   3     -19.442  25.468  21.800  1.00 19.05 LIG 0.16  HD
ATOM     29  C   PRO P   4     -19.215  27.241  21.073  1.00 21.72 LIG 0.24  C 
ATOM     30 O    PRO P   4     -18.607  28.354  21.195  1.00 18.44 LIG-0.27  OA
BRANCH 29 31
ATOM     31  CA  PRO P   4     -20.255  26.998  20.009  1.00 25.21 LIG 0.18  C 
ATOM     32  N   PRO P   4     -20.233  28.122  19.060  1.00 32.27 LIG-0.34  N 
ATOM     33  CD  PRO P   4     -19.655  27.737  17.750  1.00 30.21 LIG 0.13  C 
ATOM     34  C   ACE P   5     -20.624  29.335  19.496  1.00 41.02 LIG 0.22  C 
ATOM     35  CG  PRO P   4     -19.175  26.295  17.988  1.00 29.86 LIG 0.02  C 
ATOM     36  CB  PRO P   4     -20.035  25.785  19.118  1.00 29.41 LIG 0.04  C 
ATOM     37 O    ACE P   5     -20.930  29.566  20.680  1.00 36.79 LIG-0.27  OA
ATOM     38  CH3 ACE P   5     -20.675  30.402  18.439  1.00 44.01 LIG 0.12  C 
ENDBRANCH 29 31
ENDBRANCH 25 27
ENDBRANCH 6 25
TORSDOF 9
ENDMDL
MODEL 2
USER: ADFR SOLUTION from run 16
USER: SCORE 13.274144 LL:  -2.569 LR: -10.957 RR:   0.000 FEB:  -8.272
USER: RMSD 1.979572
USER: SEED 723416
USER: STATUS no improvement in best 2 clusters for 5 generations
USER: GENES 11
USER: genes 0 Translation |==|  0.57612 0.53201 0.52827
USER: genes 1 Rotation |==|  0.52499 0.56820 0.41625 0.98756
USER: genes 2 Torsion [N]-CA--C-[O] |==|  0.98884
USER: genes 3 Torsion [C]-N--CA-[CB] |==|  0.37166
USER: genes 4 Torsion [N]-CA--CB-[CG] |==|  0.78331
USER: genes 5 Torsion [CA]-CB--CG-[CD1] |==|  0.87575
USER: genes 6 Torsion [CE1]-CZ--OH-[HH] |==|  0.69345
USER: genes 7 Torsion [N]-CA--C-[O] |==|  0.56127
USER: genes 8 Torsion [N]-C--CA-[N] |==|  0.43344
USER: genes 9 Torsion [C]-CA--N-[C] |==|  0.64180
USER: genes 10 Torsion [N]-C--CA-[N] |==|  0.86027
ROOT
ATOM      1  N   PRO P   2     -15.767  25.620  23.728  1.00 14.82 LIG-0.34  N 
ATOM      2  CA  PRO P   2     -15.122  24.336  23.461  1.00 14.93 LIG 0.18  C 
ATOM      3  CB  PRO P   2     -13.630  24.584  23.581  1.00 16.92 LIG 0.04  C 
ATOM      4  CG  PRO P   2     -13.455  26.057  23.860  1.00 18.84 LIG 0.02  C 
ATOM      5  CD  PRO P   2     -14.818  26.631  24.237  1.00 20.22 LIG 0.13  C 
ATOM      6  C   ALA P   3     -17.065  25.785  23.470  1.00 17.18 LIG 0.24  C 
ATOM      7 O    ALA P   3     -17.830  24.890  23.033  1.00 13.58 LIG-0.27  OA
ENDROOT
BRANCH 2 8
ATOM      8  C   PRO P   2     -15.637  23.337  24.478  1.00 18.07 LIG 0.24  C 
ATOM      9  N   TYR P   1     -15.248  22.087  24.335  1.00 10.00 LIG-0.34  N 
ATOM     10 H    TYR P   1     -14.754  21.782  23.700  1.00 10.00 LIG 0.16  HD
ATOM     11 O    PRO P   2     -16.422  23.749  25.384  1.00 18.25 LIG-0.27  OA
BRANCH 9 12
ATOM     12  CA  TYR P   1     -15.690  21.104  25.349  1.00 13.52 LIG 0.19  C 
BRANCH 12 13
ATOM     13  CB  TYR P   1     -16.192  19.868  24.645  1.00 19.13 LIG 0.07  C 
BRANCH 13 14
ATOM     14  CG  TYR P   1     -17.575  19.976  24.061  1.00 19.60 LIG-0.06  A 
ATOM     15  CD1 TYR P   1     -18.647  20.539  24.751  1.00 21.46 LIG 0.01  A 
ATOM     16  CE1 TYR P   1     -19.933  20.600  24.168  1.00 23.96 LIG 0.04  A 
ATOM     17  CZ  TYR P   1     -20.125  20.068  22.906  1.00 27.70 LIG 0.07  A 
ATOM     18  CE2 TYR P   1     -19.063  19.501  22.198  1.00 27.12 LIG 0.04  A 
ATOM     19  CD2 TYR P   1     -17.794  19.446  22.788  1.00 19.18 LIG 0.01  A 
BRANCH 17 20
ATOM     20 OH   TYR P   1     -21.341  20.080  22.264  1.00 32.50 LIG-0.36  OA
ATOM     21 HH   TYR P   1     -21.642  19.297  22.220  1.00 32.50 LIG 0.22  HD
ENDBRANCH 17 20
ENDBRANCH 13 14
ENDBRANCH 12 13
BRANCH 12 22
ATOM     22  C   TYR P   1     -14.531  20.850  26.355  1.00 14.95 LIG 0.20  C 
ATOM     23 O    TYR P   1     -14.583  19.743  27.003  1.00 13.05 LIG-0.65  OA
ATOM     24 OXT  TYR P   1     -13.676  21.745  26.765  1.00 12.36 LIG-0.65  OA
ENDBRANCH 12 22
ENDBRANCH 9 12
ENDBRANCH 2 8
BRANCH 6 25
ATOM     25  CA  ALA P   3     -17.592  27.172  23.790  1.00 19.37 LIG 0.17  C 
ATOM     26  CB  ALA P   3     -17.958  27.220  25.275  1.00 20.42 LIG 0.04  C 
BRANCH 25 27
ATOM     27  N   ALA P   3     -18.797  27.448  22.981  1.00 19.05 LIG-0.35  N 
ATOM     28 H    ALA P   3     -19.393  26.829  23.026  1.00 19.05 LIG 0.16  HD
ATOM     29  C   PRO P   4     -18.944  28.541  22.258  1.00 21.72 LIG 0.24  C 
ATOM     30 O    PRO P   4     -18.074  29.471  22.204  1.00 18.44 LIG-0.27  OA
BRANCH 29 31
ATOM     31  CA  PRO P   4     -20.255  28.615  21.516  1.00 25.21 LIG 0.18  C 
ATOM     32  N   PRO P   4     -20.457  27.355  20.784  1.00 32.27 LIG-0.34  N 
ATOM     33  CD  PRO P   4     -21.522  26.521  21.389  1.00 30.21 LIG 0.13  C 
ATOM     34  C   ACE P   5     -19.626  27.069  19.762  1.00 41.02 LIG 0.22  C 
ATOM     35  CG  PRO P   4     -21.893  27.295  22.665  1.00 29.86 LIG 0.02  C 
ATOM     36  CB  PRO P   4     -21.507  28.725  22.374  1.00 29.41 LIG 0.04  C 
ATOM     37 O    ACE P   5     -18.653  27.782  19.458  1.00 36.79 LIG-0.27  OA
ATOM     38  CH3 ACE P   5     -19.968  25.821  19.000  1.00 44.01 LIG 0.12  C 
ENDBRANCH 29 31
ENDBRANCH 25 27
ENDBRANCH 6 25
TORSDOF 9
ENDMDL
