MODEL 1
USER: ADFR SOLUTION from run 31
USER: SCORE 12.379556 LL:  -1.749 LR: -10.788 RR:   0.000 FEB:  -8.402
USER: RMSD 0.769603
USER: SEED 30
USER: STATUS no improvement in best 2 clusters for 5 generations
USER: GENES 10
USER: genes 0 Translation |==|  0.52629 0.47417 0.46453
USER: genes 1 Rotation |==|  0.40184 0.50240 0.54137 0.98852
USER: genes 2 Torsion [C]-N--CA-[C] |==|  0.71192
USER: genes 3 Torsion [N]-CA--C-[O] |==|  0.64940
USER: genes 4 Torsion [N]-CA--CB-[CG] |==|  0.75209
USER: genes 5 Torsion [CA]-CB--CG-[CD2] |==|  0.43696
USER: genes 6 Torsion [N]-C--CA-[N] |==|  0.43742
USER: genes 7 Torsion [C]-CA--N-[C] |==|  0.85000
USER: genes 8 Torsion [N]-C--CA-[N] |==|  0.41518
USER: genes 9 Torsion [C]-CA--N-[H2] |==|  0.59983
ROOT
ATOM      1  C   ALA C 251      29.609   1.725  39.116  1.00 17.89 LIG 0.24  C 
ATOM      2 O    ALA C 251      29.543   0.756  39.884  1.00 18.07 LIG-0.27  OA
ATOM      3  N   TRP C 252      28.581   2.236  38.459  1.00 16.45 LIG-0.34  N 
ATOM      4 H    TRP C 252      28.620   2.900  37.913  1.00 16.45 LIG 0.16  HD
ENDROOT
BRANCH 3 5
ATOM      5  CA  TRP C 252      27.222   1.634  38.658  1.00 14.97 LIG 0.19  C 
BRANCH 5 6
ATOM      6  C   TRP C 252      26.898   0.791  37.453  1.00 14.13 LIG 0.20  C 
ATOM      7 O    TRP C 252      25.819   1.002  36.833  1.00 13.79 LIG-0.65  OA
ATOM      8 OXT  TRP C 252      27.743  -0.091  37.156  0.30 14.18 LIG-0.65  OA
ENDBRANCH 5 6
BRANCH 5 9
ATOM      9  CB  TRP C 252      26.269   2.733  39.081  1.00 15.10 LIG 0.08  C 
BRANCH 9 10
ATOM     10  CG  TRP C 252      26.248   2.890  40.573  1.00 15.42 LIG-0.03  A 
ATOM     11  CD1 TRP C 252      26.564   1.899  41.472  1.00 15.27 LIG 0.10  A 
ATOM     12  NE1 TRP C 252      26.415   2.372  42.758  1.00 15.23 LIG-0.36  N 
ATOM     13 HE1  TRP C 252      26.572   1.927  43.477  1.00 15.23 LIG 0.17  HD
ATOM     14  CE2 TRP C 252      25.975   3.670  42.701  1.00 15.53 LIG 0.04  A 
ATOM     15  CZ2 TRP C 252      25.685   4.530  43.762  1.00 15.28 LIG 0.03  A 
ATOM     16  CD2 TRP C 252      25.865   4.032  41.341  1.00 15.41 LIG-0.00  A 
ATOM     17  CH2 TRP C 252      25.261   5.816  43.410  1.00 15.35 LIG 0.00  A 
ATOM     18  CZ3 TRP C 252      25.149   6.185  42.060  1.00 15.31 LIG 0.00  A 
ATOM     19  CE3 TRP C 252      25.441   5.316  41.024  1.00 15.90 LIG 0.01  A 
ENDBRANCH 9 10
ENDBRANCH 5 9
ENDBRANCH 3 5
BRANCH 1 20
ATOM     20  CA  ALA C 251      30.936   2.435  38.842  1.00 18.99 LIG 0.17  C 
ATOM     21  CB  ALA C 251      31.566   1.948  37.548  1.00 19.07 LIG 0.04  C 
BRANCH 20 22
ATOM     22  N   ALA C 251      31.827   2.165  39.971  1.00 20.05 LIG-0.35  N 
ATOM     23 H    ALA C 251      32.583   1.834  39.731  1.00 20.05 LIG 0.16  HD
ATOM     24  C   GLY C 250      31.527   2.396  41.227  1.00 20.79 LIG 0.24  C 
ATOM     25 O    GLY C 250      30.452   2.877  41.631  1.00 21.58 LIG-0.27  OA
BRANCH 24 26
ATOM     26  CA  GLY C 250      32.616   2.009  42.222  1.00 21.39 LIG 0.33  C 
BRANCH 26 27
ATOM     27  N   GLY C 250      32.571   2.890  43.402  1.00 22.00 LIG-0.07  N 
ATOM     28 H1   GLY C 250      32.101   2.497  44.048  1.00 22.00 LIG 0.27  HD
ATOM     29 H2   GLY C 250      33.399   3.044  43.690  1.00 22.00 LIG 0.27  HD
ATOM     30 H3   GLY C 250      32.186   3.661  43.183  1.00 22.00 LIG 0.27  HD
ENDBRANCH 26 27
ENDBRANCH 24 26
ENDBRANCH 20 22
ENDBRANCH 1 20
TORSDOF 8
ENDMDL
