MODEL 1
USER: ADFR SOLUTION from run 48
USER: SCORE 10.616011 LL:  -1.723 LR:  -8.893 RR:   0.000 FEB:  -5.910
USER: RMSD 0.953500
USER: SEED 47
USER: STATUS 1 or 2 clusters left
USER: GENES 12
USER: genes 0 Translation |==|  0.49048 0.58028 0.48023
USER: genes 1 Rotation |==|  0.52562 0.53488 0.50768 0.99806
USER: genes 2 Torsion [C]-N--CA-[C] |==|  0.58889
USER: genes 3 Torsion [N]-CA--C-[O] |==|  0.06283
USER: genes 4 Torsion [N]-CA--CB-[CG] |==|  0.11014
USER: genes 5 Torsion [CA]-CB--CG-[CD] |==|  0.35318
USER: genes 6 Torsion [CB]-CG--CD-[CE] |==|  0.78898
USER: genes 7 Torsion [CG]-CD--CE-[NZ] |==|  0.77655
USER: genes 8 Torsion [CD]-CE--NZ-[HZ2] |==|  0.76373
USER: genes 9 Torsion [N]-C--CA-[N] |==|  0.96181
USER: genes 10 Torsion [C]-CA--N-[H1] |==|  0.78527
USER: genes 11 Torsion [C]-CA--CB-[CG1] |==|  0.86371
ROOT
ATOM      1  C   VAL E1322      37.424  42.018  -3.083  1.00 68.39 LIG 0.25  C 
ATOM      2 O    VAL E1322      38.460  42.610  -3.240  1.00 21.34 LIG-0.27  OA
ATOM      3  N   LYS E1323      37.321  40.704  -3.368  1.00 24.29 LIG-0.34  N 
ATOM      4 H    LYS E1323      36.579  40.278  -3.281  1.00 24.29 LIG 0.16  HD
ENDROOT
BRANCH 3 5
ATOM      5  CA  LYS E1323      38.462  39.801  -3.871  1.00 35.31 LIG 0.18  C 
BRANCH 5 6
ATOM      6  C   LYS E1323      38.088  38.624  -4.833  1.00 31.13 LIG 0.20  C 
ATOM      7 O    LYS E1323      36.960  38.796  -5.469  1.00 27.62 LIG-0.65  OA
ATOM      8 OXT  LYS E1323      38.932  37.658  -4.956  1.00100.00 LIG-0.65  OA
ENDBRANCH 5 6
BRANCH 5 9
ATOM      9  CB  LYS E1323      39.330  39.303  -2.746  1.00 34.48 LIG 0.04  C 
BRANCH 9 10
ATOM     10  CG  LYS E1323      38.563  38.932  -1.527  1.00 39.74 LIG 0.00  C 
BRANCH 10 11
ATOM     11  CD  LYS E1323      38.978  37.538  -1.176  1.00 52.87 LIG 0.03  C 
BRANCH 11 12
ATOM     12  CE  LYS E1323      38.339  36.536  -2.094  1.00 74.69 LIG 0.23  C 
BRANCH 12 13
ATOM     13  NZ  LYS E1323      36.960  36.247  -1.692  1.00 65.28 LIG-0.08  N 
ATOM     14 HZ1  LYS E1323      36.497  35.968  -2.399  1.00 65.28 LIG 0.27  HD
ATOM     15 HZ2  LYS E1323      36.960  35.613  -1.067  1.00 65.28 LIG 0.27  HD
ATOM     16 HZ3  LYS E1323      36.585  36.985  -1.365  1.00 65.28 LIG 0.27  HD
ENDBRANCH 12 13
ENDBRANCH 11 12
ENDBRANCH 10 11
ENDBRANCH 9 10
ENDBRANCH 5 9
ENDBRANCH 3 5
BRANCH 1 17
ATOM     17  CA  VAL E1322      36.210  42.759  -2.534  1.00 27.04 LIG 0.28  C 
BRANCH 17 18
ATOM     18  N   VAL E1322      34.982  41.963  -2.702  1.00 24.29 LIG-0.07  N 
ATOM     19 H1   VAL E1322      34.710  42.011  -3.547  1.00 24.29 LIG 0.28  HD
ATOM     20 H2   VAL E1322      35.147  41.114  -2.491  1.00 24.29 LIG 0.28  HD
ATOM     21 H3   VAL E1322      34.346  42.282  -2.168  1.00 24.29 LIG 0.28  HD
ENDBRANCH 17 18
BRANCH 17 22
ATOM     22  CB  VAL E1322      36.534  43.336  -1.147  1.00 26.94 LIG 0.02  C 
ATOM     23  CG1 VAL E1322      37.172  42.276  -0.226  1.00 31.09 LIG 0.01  C 
ATOM     24  CG2 VAL E1322      37.372  44.680  -1.271  1.00 18.44 LIG 0.01  C 
ENDBRANCH 17 22
ENDBRANCH 1 17
TORSDOF 10
ENDMDL
