REMARK  9 active torsions:
REMARK  status: ('A' for Active; 'I' for Inactive)
REMARK    1  A    between atoms: N_1  and  CA_2 
REMARK    2  A    between atoms: CA_2  and  C_3 
REMARK    3  A    between atoms: CA_2  and  CB_5 
REMARK       I    between atoms: C_3  and  N_15 
REMARK    4  A    between atoms: CB_5  and  CG_6 
REMARK    5  A    between atoms: N_15  and  CA_16 
REMARK    6  A    between atoms: CA_16  and  C_17 
REMARK       I    between atoms: C_17  and  N_21 
REMARK    7  A    between atoms: N_21  and  CA_22 
REMARK    8  A    between atoms: CA_22  and  C_23 
REMARK       I    between atoms: C_23  and  N_26 
REMARK    9  A    between atoms: CA_27  and  C_28 
ROOT
ATOM      1  C   HIS D 487      25.507  48.380  41.016  1.00 20.76     0.249 C 
ATOM      2  O   HIS D 487      26.701  48.671  41.027  1.00 23.11    -0.271 OA
ATOM      3  N   ALA D 488      24.551  49.227  41.382  1.00 15.78    -0.346 N 
ATOM      4  H   ALA D 488      23.711  49.049  41.343  1.00 15.78     0.163 HD
ENDROOT
BRANCH   3   5
ATOM      5  CA  ALA D 488      24.862  50.555  41.890  1.00 17.18     0.172 C 
ATOM      6  CB  ALA D 488      23.587  51.357  42.080  1.00 18.90     0.042 C 
BRANCH   5   7
ATOM      7  C   ALA D 488      25.620  50.467  43.204  1.00 23.02     0.240 C 
ATOM      8  O   ALA D 488      25.446  49.514  43.970  1.00 24.91    -0.271 OA
ATOM      9  N   GLY D 489      26.410  51.496  43.486  1.00 25.69    -0.351 N 
ATOM     10  H   GLY D 489      26.491  52.194  42.990  1.00 25.69     0.163 HD
BRANCH   9  11
ATOM     11  CA  GLY D 489      27.217  51.512  44.692  1.00 31.31     0.225 C 
BRANCH  11  12
ATOM     12  C   GLY D 489      28.508  52.284  44.498  1.00 31.81     0.238 C 
ATOM     13  O   GLY D 489      28.901  52.552  43.363  1.00 37.54    -0.272 OA
ATOM     14  N   PRO D 490      29.137  52.754  45.585  1.00 32.04    -0.339 N 
ATOM     15  CD  PRO D 490      28.524  53.162  46.860  1.00 30.24     0.127 C 
ATOM     16  CA  PRO D 490      30.546  53.153  45.508  1.00 28.96     0.165 C 
ATOM     17  CG  PRO D 490      29.714  53.549  47.696  1.00 27.78     0.022 C 
ATOM     18  CB  PRO D 490      30.725  54.047  46.734  1.00 26.97     0.035 C 
BRANCH  16  19
ATOM     19  C   PRO D 490      31.501  51.960  45.523  1.00 23.69     0.219 C 
ATOM     20  O   PRO D 490      31.248  50.953  46.176  1.00 20.56    -0.287 OA
ENDBRANCH  16  19
ENDBRANCH  11  12
ENDBRANCH   9  11
ENDBRANCH   5   7
ENDBRANCH   3   5
BRANCH   1  21
ATOM     21  CA  HIS D 487      25.050  47.017  40.509  1.00 19.79     0.280 C 
BRANCH  21  22
ATOM     22  CB  HIS D 487      25.629  45.928  41.402  1.00 13.21     0.101 C 
BRANCH  22  23
ATOM     23  CG  HIS D 487      25.203  44.548  41.020  1.00  6.04     0.030 A 
ATOM     24  CD2 HIS D 487      25.627  43.727  40.032  1.00  9.79     0.143 A 
ATOM     25  NE2 HIS D 487      24.908  42.561  40.138  1.00 21.50    -0.254 NA
ATOM     26  CE1 HIS D 487      24.073  42.662  41.155  1.00 16.19     0.207 A 
ATOM     27  ND1 HIS D 487      24.233  43.851  41.707  1.00 14.18    -0.353 N 
ATOM     28  HD1 HIS D 487      23.799  44.145  42.389  1.00 14.18     0.166 HD
ENDBRANCH  22  23
ENDBRANCH  21  22
BRANCH  21  29
ATOM     29  N   HIS D 487      25.474  46.816  39.129  1.00 20.90    -0.066 N 
ATOM     30  H1  HIS D 487      25.059  46.105  38.791  1.00 20.90     0.275 HD
ATOM     31  H3  HIS D 487      26.354  46.685  39.105  1.00 20.90     0.275 HD
ATOM     32  H2  HIS D 487      25.268  47.536  38.647  1.00 20.90     0.275 HD
ENDBRANCH  21  29
ENDBRANCH   1  21
TORSDOF 9
