REMARK  19 active torsions:
REMARK  status: ('A' for Active; 'I' for Inactive)
REMARK    1  A    between atoms: N_1  and  CA_2 
REMARK    2  A    between atoms: CA_2  and  C_3 
REMARK    3  A    between atoms: CA_2  and  CB_5 
REMARK       I    between atoms: C_3  and  N_12 
REMARK    4  A    between atoms: CB_5  and  CG_6 
REMARK    5  A    between atoms: N_12  and  CA_13 
REMARK    6  A    between atoms: CA_13  and  C_14 
REMARK       I    between atoms: C_14  and  N_18 
REMARK    7  A    between atoms: N_18  and  CA_19 
REMARK    8  A    between atoms: CA_19  and  C_20 
REMARK    9  A    between atoms: CA_19  and  CB_22 
REMARK       I    between atoms: C_20  and  N_27 
REMARK   10  A    between atoms: CB_22  and  CG1_23 
REMARK   11  A    between atoms: N_27  and  CA_28 
REMARK   12  A    between atoms: CA_28  and  C_29 
REMARK   13  A    between atoms: CA_28  and  CB_31 
REMARK       I    between atoms: C_29  and  N_41 
REMARK   14  A    between atoms: CB_31  and  CG_32 
REMARK   15  A    between atoms: CZ_37  and  OH_38 
REMARK   16  A    between atoms: N_41  and  CA_42 
REMARK   17  A    between atoms: CA_42  and  CB_45 
REMARK   18  A    between atoms: CA_42  and  C_43 
REMARK   19  A    between atoms: CB_45  and  OG_46 
ROOT
ATOM      1  C   ILE P   3      12.711  22.329  41.656  1.00 41.75     0.241 C 
ATOM      2  O   ILE P   3      12.662  23.302  40.907  1.00 43.02    -0.271 OA
ATOM      3  N   TYR P   4      13.144  22.415  42.903  1.00 40.49    -0.346 N 
ATOM      4  H   TYR P   4      13.122  21.773  43.474  1.00 40.49     0.163 HD
ENDROOT
BRANCH   1   5
ATOM      5  CA  ILE P   3      12.235  20.954  41.167  1.00 41.79     0.180 C 
BRANCH   5   6
ATOM      6  N   ILE P   3      11.616  21.059  39.834  1.00 42.70    -0.346 N 
ATOM      7  H   ILE P   3      12.052  21.554  39.283  1.00 42.70     0.163 HD
ATOM      8  C   ALA P   2      10.479  20.435  39.525  1.00 42.25     0.240 C 
ATOM      9  O   ALA P   2       9.869  19.744  40.324  1.00 43.48    -0.271 OA
BRANCH   8  10
ATOM     10  CA  ALA P   2       9.928  20.605  38.112  1.00 41.32     0.172 C 
ATOM     11  CB  ALA P   2       8.930  21.739  38.072  1.00 39.54     0.042 C 
BRANCH  10  12
ATOM     12  N   ALA P   2       9.260  19.360  37.756  1.00 41.39    -0.346 N 
ATOM     13  H   ALA P   2       8.461  19.461  37.455  1.00 41.39     0.163 HD
ATOM     14  C   LEU P   1       9.854  18.180  37.893  1.00 41.33     0.248 C 
ATOM     15  O   LEU P   1      11.010  18.054  38.307  1.00 41.61    -0.271 OA
BRANCH  14  16
ATOM     16  CA  LEU P   1       9.023  16.960  37.495  1.00 40.25     0.275 C 
BRANCH  16  17
ATOM     17  N   LEU P   1       9.906  15.770  37.393  1.00 40.65    -0.066 N 
ATOM     18  H2  LEU P   1      10.640  15.983  36.937  1.00 40.65     0.275 HD
ATOM     19  H1  LEU P   1       9.475  15.115  36.972  1.00 40.65     0.275 HD
ATOM     20  H3  LEU P   1      10.133  15.498  38.209  1.00 40.65     0.275 HD
ENDBRANCH  16  17
BRANCH  16  21
ATOM     21  CB  LEU P   1       7.939  16.710  38.548  1.00 38.59     0.046 C 
BRANCH  21  22
ATOM     22  CG  LEU P   1       6.512  17.250  38.384  1.00 36.61    -0.020 C 
ATOM     23  CD2 LEU P   1       5.588  16.087  38.071  1.00 36.34     0.009 C 
ATOM     24  CD1 LEU P   1       6.439  18.296  37.283  1.00 35.12     0.009 C 
ENDBRANCH  21  22
ENDBRANCH  16  21
ENDBRANCH  14  16
ENDBRANCH  10  12
ENDBRANCH   8  10
ENDBRANCH   5   6
BRANCH   5  25
ATOM     25  CB  ILE P   3      13.494  20.080  41.131  1.00 41.77     0.013 C 
ATOM     26  CG2 ILE P   3      14.604  20.846  40.416  1.00 41.93     0.012 C 
BRANCH  25  27
ATOM     27  CG1 ILE P   3      13.933  19.728  42.557  1.00 42.12     0.002 C 
ATOM     28  CD1 ILE P   3      15.409  19.482  42.738  1.00 41.36     0.005 C 
ENDBRANCH  25  27
ENDBRANCH   5  25
ENDBRANCH   1   5
BRANCH   3  29
ATOM     29  CA  TYR P   4      13.703  23.652  43.393  1.00 39.63     0.180 C 
BRANCH  29  30
ATOM     30  C   TYR P   4      15.197  23.563  43.069  1.00 40.27     0.241 C 
ATOM     31  N   SER P   5      15.534  24.124  41.931  1.00 40.75    -0.343 N 
ATOM     32  H   SER P   5      14.969  24.530  41.425  1.00 40.75     0.163 HD
ATOM     33  O   TYR P   4      15.972  22.980  43.817  1.00 40.83    -0.271 OA
BRANCH  31  34
ATOM     34  CA  SER P   5      16.896  24.124  41.397  1.00 41.35     0.209 C 
BRANCH  34  35
ATOM     35  CB  SER P   5      16.578  24.759  40.037  1.00 41.35     0.200 C 
BRANCH  35  36
ATOM     36  OG  SER P   5      17.916  25.170  39.835  1.00 42.37    -0.398 OA
ATOM     37  HG  SER P   5      18.275  24.681  39.254  1.00 42.37     0.209 HD
ENDBRANCH  35  36
ENDBRANCH  34  35
BRANCH  34  38
ATOM     38  C   SER P   5      17.959  24.472  42.423  1.00 41.28     0.198 C 
ATOM     39  OXT SER P   5      19.219  24.074  42.011  1.00 41.68    -0.646 OA
ATOM     40  O   SER P   5      17.667  24.632  43.605  1.00 42.12    -0.646 OA
ENDBRANCH  34  38
ENDBRANCH  31  34
ENDBRANCH  29  30
BRANCH  29  41
ATOM     41  CB  TYR P   4      13.365  23.897  44.882  1.00 37.99     0.073 C 
BRANCH  41  42
ATOM     42  CG  TYR P   4      14.486  23.737  45.920  1.00 35.75    -0.056 A 
ATOM     43  CD2 TYR P   4      14.371  22.748  46.899  1.00 34.88     0.010 A 
ATOM     44  CE2 TYR P   4      15.365  22.549  47.841  1.00 35.19     0.037 A 
ATOM     45  CZ  TYR P   4      16.493  23.337  47.818  1.00 34.95     0.065 A 
ATOM     46  CE1 TYR P   4      16.639  24.336  46.869  1.00 35.39     0.037 A 
ATOM     47  CD1 TYR P   4      15.631  24.533  45.923  1.00 35.59     0.010 A 
BRANCH  45  48
ATOM     48  OH  TYR P   4      17.486  23.135  48.754  1.00 35.19    -0.361 OA
ATOM     49  HH  TYR P   4      18.180  23.546  48.519  1.00 35.19     0.217 HD
ENDBRANCH  45  48
ENDBRANCH  41  42
ENDBRANCH  29  41
ENDBRANCH   3  29
TORSDOF 19
