REMARK  10 active torsions:
REMARK  status: ('A' for Active; 'I' for Inactive)
REMARK    1  A    between atoms: N_1  and  CA_2 
REMARK    2  A    between atoms: CA_2  and  C_3 
REMARK    3  A    between atoms: CA_2  and  CB_5 
REMARK       I    between atoms: C_3  and  N_11 
REMARK    4  A    between atoms: N_11  and  CA_12 
REMARK    5  A    between atoms: CA_12  and  C_13 
REMARK    6  A    between atoms: CA_12  and  CB_15 
REMARK    7  A    between atoms: CB_15  and  CG_16 
REMARK    8  A    between atoms: CG_16  and  CD_17 
REMARK    9  A    between atoms: CD_17  and  CE_18 
REMARK   10  A    between atoms: CE_18  and  NZ_19 
ROOT
HETATM    1  C   VAL E1321      37.644  41.571  -3.666  1.00100.00     0.249 C 
HETATM    2  O   VAL E1321      38.743  42.047  -3.520  1.00 26.63    -0.271 OA
HETATM    3  N   LYS E1322      37.446  40.280  -3.945  1.00 27.49    -0.345 N 
HETATM    4  H   LYS E1322      36.671  39.915  -4.022  1.00 27.49     0.163 HD
ENDROOT
BRANCH   3   5
HETATM    5  CA  LYS E1322      38.575  39.366  -4.145  1.00 83.53     0.185 C 
BRANCH   5   6
HETATM    6  C   LYS E1322      38.310  38.165  -5.094  1.00 46.63     0.196 C 
HETATM    7  O   LYS E1322      37.193  38.077  -5.691  1.00 43.95    -0.646 OA
HETATM    8  OXT LYS E1322      39.278  37.370  -5.332  1.00100.00    -0.646 OA
ENDBRANCH   5   6
BRANCH   5   9
HETATM    9  CB  LYS E1322      39.187  38.966  -2.829  1.00 27.11     0.036 C 
BRANCH   9  10
HETATM   10  CG  LYS E1322      38.326  38.068  -1.972  1.00 36.61     0.004 C 
BRANCH  10  11
HETATM   11  CD  LYS E1322      39.156  36.917  -1.420  1.00 49.53     0.027 C 
BRANCH  11  12
HETATM   12  CE  LYS E1322      38.592  35.555  -1.784  1.00100.00     0.229 C 
BRANCH  12  13
HETATM   13  NZ  LYS E1322      37.208  35.369  -1.312  1.00 46.56    -0.079 N 
HETATM   14  HZ1 LYS E1322      37.119  34.554  -0.965  1.00 46.56     0.274 HD
HETATM   15  HZ2 LYS E1322      37.022  35.978  -0.690  1.00 46.56     0.274 HD
HETATM   16  HZ3 LYS E1322      36.646  35.463  -1.996  1.00 46.56     0.274 HD
ENDBRANCH  12  13
ENDBRANCH  11  12
ENDBRANCH  10  11
ENDBRANCH   9  10
ENDBRANCH   5   9
ENDBRANCH   3   5
BRANCH   1  17
HETATM   17  CA  VAL E1321      36.424  42.426  -3.423  1.00 34.64     0.278 C 
BRANCH  17  18
HETATM   18  N   VAL E1321      35.218  41.911  -4.074  1.00 23.60    -0.066 N 
HETATM   19  H1  VAL E1321      34.498  42.200  -3.638  1.00 23.60     0.275 HD
HETATM   20  H2  VAL E1321      35.189  42.198  -4.916  1.00 23.60     0.275 HD
HETATM   21  H3  VAL E1321      35.232  41.021  -4.065  1.00 23.60     0.275 HD
ENDBRANCH  17  18
BRANCH  17  22
HETATM   22  CB  VAL E1321      36.295  42.646  -1.935  1.00 31.80     0.017 C 
HETATM   23  CG1 VAL E1321      36.323  41.302  -1.177  1.00 29.70     0.012 C 
HETATM   24  CG2 VAL E1321      37.389  43.609  -1.438  1.00 23.28     0.012 C 
ENDBRANCH  17  22
ENDBRANCH   1  17
TORSDOF 10
