REMARK  15 active torsions:
REMARK  status: ('A' for Active; 'I' for Inactive)
REMARK    1  A    between atoms: N_1  and  CA_2 
REMARK    2  A    between atoms: CA_2  and  C_3 
REMARK       I    between atoms: C_3  and  N_9 
REMARK    3  A    between atoms: N_9  and  CA_10 
REMARK    4  A    between atoms: CA_10  and  CB_13 
REMARK    5  A    between atoms: CA_10  and  C_11 
REMARK       I    between atoms: C_11  and  N_17 
REMARK    6  A    between atoms: CB_13  and  OG_14 
REMARK    7  A    between atoms: N_17  and  CA_18 
REMARK    8  A    between atoms: CA_18  and  CB_21 
REMARK    9  A    between atoms: CA_18  and  C_19 
REMARK       I    between atoms: C_19  and  N_25 
REMARK   10  A    between atoms: N_25  and  CA_26 
REMARK   11  A    between atoms: CA_26  and  C_27 
REMARK   12  A    between atoms: CA_26  and  CB_29 
REMARK       I    between atoms: C_27  and  N_33 
REMARK   13  A    between atoms: CB_29  and  OG_30 
REMARK   14  A    between atoms: N_33  and  CA_34 
REMARK   15  A    between atoms: CA_34  and  C_35 
ROOT
ATOM      1  CA  VAL B 303      13.797   3.474  32.276  1.00 28.18     0.180 C 
ENDROOT
BRANCH   1   2
ATOM      2  N   VAL B 303      12.523   3.247  32.946  1.00 29.68    -0.346 N 
ATOM      3  C   SER B 302      12.026   2.026  33.126  1.00 31.00     0.243 C 
ATOM      4  O   SER B 302      12.598   1.008  32.712  1.00 32.88    -0.271 OA
ATOM      5  H   VAL B 303      12.130   3.966  33.209  1.00 29.68     0.163 HD
BRANCH   3   6
ATOM      6  CA  SER B 302      10.673   1.940  33.860  1.00 30.54     0.200 C 
BRANCH   6   7
ATOM      7  N   SER B 302      10.077   0.606  33.755  1.00 26.47    -0.344 N 
ATOM      8  C   ALA B 301       8.758   0.415  33.731  1.00 26.40     0.248 C 
ATOM      9  O   ALA B 301       7.937   1.328  33.832  1.00 23.28    -0.271 OA
ATOM     10  H   SER B 302      10.651  -0.033  33.711  1.00 26.47     0.163 HD
BRANCH   8  11
ATOM     11  CA  ALA B 301       8.285  -1.033  33.603  1.00 27.42     0.270 C 
ATOM     12  CB  ALA B 301       7.652  -1.283  32.201  1.00 28.79     0.050 C 
BRANCH  11  13
ATOM     13  N   ALA B 301       7.279  -1.336  34.670  1.00 29.28    -0.067 N 
ATOM     14  H1  ALA B 301       7.007  -2.180  34.591  1.00 29.28     0.275 HD
ATOM     15  H2  ALA B 301       7.650  -1.218  35.470  1.00 29.28     0.275 HD
ATOM     16  H3  ALA B 301       6.581  -0.791  34.584  1.00 29.28     0.275 HD
ENDBRANCH  11  13
ENDBRANCH   8  11
ENDBRANCH   6   7
BRANCH   6  17
ATOM     17  CB  SER B 302      10.875   2.337  35.326  1.00 31.87     0.199 C 
BRANCH  17  18
ATOM     18  OG  SER B 302      11.941   1.605  35.890  1.00 37.10    -0.398 OA
ATOM     19  HG  SER B 302      12.043   1.832  36.692  1.00 37.10     0.209 HD
ENDBRANCH  17  18
ENDBRANCH   6  17
ENDBRANCH   3   6
ENDBRANCH   1   2
BRANCH   1  20
ATOM     20  CB  VAL B 303      13.598   3.709  30.729  1.00 29.00     0.009 C 
ATOM     21  CG1 VAL B 303      12.954   2.488  30.104  1.00 28.23     0.012 C 
ATOM     22  CG2 VAL B 303      12.705   4.930  30.476  1.00 26.76     0.012 C 
ENDBRANCH   1  20
BRANCH   1  23
ATOM     23  C   VAL B 303      14.438   4.699  32.907  1.00 28.25     0.241 C 
ATOM     24  O   VAL B 303      13.750   5.520  33.524  1.00 25.63    -0.271 OA
ATOM     25  N   SER B 304      15.754   4.823  32.796  1.00 28.07    -0.344 N 
ATOM     26  H   SER B 304      16.271   4.253  32.412  1.00 28.07     0.163 HD
BRANCH  25  27
ATOM     27  CA  SER B 304      16.422   5.994  33.349  1.00 30.78     0.200 C 
BRANCH  27  28
ATOM     28  C   SER B 304      16.872   6.879  32.179  1.00 31.57     0.243 C 
ATOM     29  O   SER B 304      17.079   6.383  31.067  1.00 32.88    -0.271 OA
ATOM     30  N   ALA B 305      17.046   8.174  32.436  1.00 33.00    -0.348 N 
ATOM     31  H   ALA B 305      16.937   8.515  33.218  1.00 33.00     0.163 HD
BRANCH  30  32
ATOM     32  CA  ALA B 305      17.442   9.156  31.416  1.00 34.21     0.158 C 
ATOM     33  CB  ALA B 305      16.623  10.479  31.620  1.00 33.59     0.041 C 
BRANCH  32  34
ATOM     34  C   ALA B 305      18.927   9.473  31.505  1.00 34.64     0.219 C 
ATOM     35  O   ALA B 305      19.354  10.465  30.864  1.00 35.93    -0.287 OA
ENDBRANCH  32  34
ENDBRANCH  30  32
ENDBRANCH  27  28
BRANCH  27  36
ATOM     36  CB  SER B 304      17.622   5.570  34.196  1.00 32.96     0.199 C 
BRANCH  36  37
ATOM     37  OG  SER B 304      18.590   4.946  33.368  1.00 37.22    -0.398 OA
ATOM     38  HG  SER B 304      19.250   4.715  33.833  1.00 37.22     0.209 HD
ENDBRANCH  36  37
ENDBRANCH  27  36
ENDBRANCH  25  27
ENDBRANCH   1  23
TORSDOF 15
