REMARK  23 active torsions:
REMARK  status: ('A' for Active; 'I' for Inactive)
REMARK    1  A    between atoms: N_1  and  CA_2 
REMARK    2  A    between atoms: CA_2  and  CB_5 
REMARK    3  A    between atoms: CA_2  and  C_3 
REMARK       I    between atoms: C_3  and  N_16 
REMARK    4  A    between atoms: CB_5  and  CG_6 
REMARK    5  A    between atoms: CG_6  and  CD_7 
REMARK    6  A    between atoms: CD_7  and  CE_8 
REMARK    7  A    between atoms: CE_8  and  NZ_9 
REMARK    8  A    between atoms: N_16  and  CA_17 
REMARK    9  A    between atoms: CA_17  and  CB_20 
REMARK   10  A    between atoms: CA_17  and  C_18 
REMARK       I    between atoms: C_18  and  N_29 
REMARK   11  A    between atoms: CB_20  and  CG_21 
REMARK   12  A    between atoms: CG_21  and  CD_22 
REMARK   13  A    between atoms: CD_22  and  CE_23 
REMARK   14  A    between atoms: CE_23  and  NZ_24 
REMARK   15  A    between atoms: N_29  and  CA_30 
REMARK   16  A    between atoms: CA_30  and  CB_33 
REMARK   17  A    between atoms: CA_30  and  C_31 
REMARK       I    between atoms: C_31  and  N_42 
REMARK   18  A    between atoms: CB_33  and  CG_34 
REMARK   19  A    between atoms: CG_34  and  CD_35 
REMARK   20  A    between atoms: CD_35  and  CE_36 
REMARK   21  A    between atoms: CE_36  and  NZ_37 
REMARK   22  A    between atoms: N_42  and  CA_43 
REMARK   23  A    between atoms: CA_43  and  C_44 
ROOT
ATOM      1  CA  LYS B   2       3.911  20.835  16.340  1.00  9.55     0.176 C 
ENDROOT
BRANCH   1   2
ATOM      2  CB  LYS B   2       4.322  22.289  16.784  1.00  7.13     0.035 C 
BRANCH   2   3
ATOM      3  CG  LYS B   2       5.464  22.183  17.806  1.00  9.06     0.004 C 
BRANCH   3   4
ATOM      4  CD  LYS B   2       5.706  23.232  18.793  1.00 20.34     0.027 C 
BRANCH   4   5
ATOM      5  CE  LYS B   2       6.077  22.822  20.234  1.00 19.41     0.229 C 
BRANCH   5   6
ATOM      6  NZ  LYS B   2       7.333  22.044  20.307  1.00 27.89    -0.079 N 
ATOM      7  HZ2 LYS B   2       7.144  21.174  20.304  1.00 27.89     0.274 HD
ATOM      8  HZ3 LYS B   2       7.844  22.238  19.605  1.00 27.89     0.274 HD
ATOM      9  HZ1 LYS B   2       7.767  22.251  21.056  1.00 27.89     0.274 HD
ENDBRANCH   5   6
ENDBRANCH   4   5
ENDBRANCH   3   4
ENDBRANCH   2   3
ENDBRANCH   1   2
BRANCH   1  10
ATOM     10  C   LYS B   2       2.690  20.821  15.452  1.00  8.95     0.241 C 
ATOM     11  O   LYS B   2       2.693  21.187  14.262  1.00  5.49    -0.271 OA
ATOM     12  N   LYS B   3       1.538  20.301  15.976  1.00  9.84    -0.346 N 
ATOM     13  H   LYS B   3       1.458  20.035  16.790  1.00  9.84     0.163 HD
BRANCH  12  14
ATOM     14  CA  LYS B   3       0.361  20.159  15.195  1.00  6.67     0.176 C 
BRANCH  14  15
ATOM     15  CB  LYS B   3      -0.464  18.850  15.567  1.00  5.08     0.035 C 
BRANCH  15  16
ATOM     16  CG  LYS B   3      -1.290  18.627  14.247  1.00 11.87     0.004 C 
BRANCH  16  17
ATOM     17  CD  LYS B   3      -2.474  17.777  14.504  1.00 16.50     0.027 C 
BRANCH  17  18
ATOM     18  CE  LYS B   3      -3.259  17.510  13.225  1.00 11.29     0.229 C 
BRANCH  18  19
ATOM     19  NZ  LYS B   3      -4.153  18.639  12.883  1.00 14.74    -0.079 N 
ATOM     20  HZ1 LYS B   3      -4.381  18.588  12.024  1.00 14.74     0.274 HD
ATOM     21  HZ2 LYS B   3      -4.886  18.601  13.387  1.00 14.74     0.274 HD
ATOM     22  HZ3 LYS B   3      -3.731  19.408  13.032  1.00 14.74     0.274 HD
ENDBRANCH  18  19
ENDBRANCH  17  18
ENDBRANCH  16  17
ENDBRANCH  15  16
ENDBRANCH  14  15
BRANCH  14  23
ATOM     23  C   LYS B   3      -0.623  21.310  15.433  1.00 11.62     0.241 C 
ATOM     24  N   ALA B   4      -0.791  22.123  14.401  1.00 11.21    -0.345 N 
ATOM     25  H   ALA B   4      -0.360  22.069  13.659  1.00 11.21     0.163 HD
ATOM     26  O   LYS B   3      -1.226  21.407  16.520  1.00  6.98    -0.271 OA
BRANCH  24  27
ATOM     27  CA  ALA B   4      -1.781  23.222  14.477  1.00 15.60     0.181 C 
ATOM     28  CB  ALA B   4      -1.706  24.111  13.231  1.00  9.87     0.043 C 
BRANCH  27  29
ATOM     29  C   ALA B   4      -3.207  22.611  14.569  1.00 11.70     0.196 C 
ATOM     30  OXT ALA B   4      -3.356  21.594  13.874  1.00 11.31    -0.646 OA
ATOM     31  O   ALA B   4      -4.108  23.166  15.232  1.00 13.41    -0.646 OA
ENDBRANCH  27  29
ENDBRANCH  24  27
ENDBRANCH  14  23
ENDBRANCH  12  14
ENDBRANCH   1  10
BRANCH   1  32
ATOM     32  N   LYS B   2       5.051  20.194  15.668  1.00  9.26    -0.346 N 
ATOM     33  H   LYS B   2       5.642  20.762  15.408  1.00  9.26     0.163 HD
ATOM     34  C   LYS B   1       5.193  18.902  15.466  1.00  9.39     0.248 C 
ATOM     35  O   LYS B   1       4.396  18.055  15.929  1.00 10.41    -0.271 OA
BRANCH  34  36
ATOM     36  CA  LYS B   1       6.406  18.391  14.695  1.00 10.02     0.274 C 
BRANCH  36  37
ATOM     37  CB  LYS B   1       6.121  18.277  13.175  1.00  9.48     0.042 C 
BRANCH  37  38
ATOM     38  CG  LYS B   1       5.348  17.056  12.739  1.00 17.99     0.004 C 
BRANCH  38  39
ATOM     39  CD  LYS B   1       5.203  16.917  11.216  1.00 11.58     0.027 C 
BRANCH  39  40
ATOM     40  CE  LYS B   1       6.402  16.216  10.568  1.00 12.42     0.229 C 
BRANCH  40  41
ATOM     41  NZ  LYS B   1       6.491  14.836  11.104  1.00 15.26    -0.079 N 
ATOM     42  HZ3 LYS B   1       5.749  14.390  10.900  1.00 15.26     0.274 HD
ATOM     43  HZ2 LYS B   1       6.585  14.866  11.989  1.00 15.26     0.274 HD
ATOM     44  HZ1 LYS B   1       7.193  14.423  10.746  1.00 15.26     0.274 HD
ENDBRANCH  40  41
ENDBRANCH  39  40
ENDBRANCH  38  39
ENDBRANCH  37  38
ENDBRANCH  36  37
BRANCH  36  45
ATOM     45  N   LYS B   1       6.818  17.080  15.263  1.00  7.61    -0.067 N 
ATOM     46  H1  LYS B   1       7.314  16.641  14.668  1.00  7.61     0.275 HD
ATOM     47  H2  LYS B   1       7.292  17.213  16.004  1.00  7.61     0.275 HD
ATOM     48  H3  LYS B   1       6.094  16.600  15.457  1.00  7.61     0.275 HD
ENDBRANCH  36  45
ENDBRANCH  34  36
ENDBRANCH   1  32
TORSDOF 23
