REMARK  17 active torsions:
REMARK  status: ('A' for Active; 'I' for Inactive)
REMARK       I    between atoms: C_1  and  N_4 
REMARK    1  A    between atoms: N_4  and  CA_5 
REMARK    2  A    between atoms: CA_5  and  C_6 
REMARK    3  A    between atoms: CA_5  and  CB_8 
REMARK       I    between atoms: C_6  and  N_13 
REMARK    4  A    between atoms: CB_8  and  CG_9 
REMARK    5  A    between atoms: N_13  and  CA_14 
REMARK    6  A    between atoms: CA_14  and  C_15 
REMARK    7  A    between atoms: CA_14  and  CB_17 
REMARK       I    between atoms: C_15  and  N_23 
REMARK    8  A    between atoms: CB_17  and  CG_18 
REMARK    9  A    between atoms: CG_18  and  CD_19 
REMARK   10  A    between atoms: N_23  and  CA_24 
REMARK   11  A    between atoms: CA_24  and  C_25 
REMARK   12  A    between atoms: CA_24  and  CB_27 
REMARK       I    between atoms: C_25  and  N_31 
REMARK   13  A    between atoms: N_31  and  CA_32 
REMARK   14  A    between atoms: CA_32  and  C_33 
REMARK   15  A    between atoms: CA_32  and  CB_35 
REMARK   16  A    between atoms: C_33  and  O_34 
REMARK   17  A    between atoms: CB_35  and  CG_36 
ROOT
ATOM      1  CA  GLU C 503      40.192  95.228  23.013  1.00 22.23     0.177 C 
ENDROOT
BRANCH   1   2
ATOM      2  C   GLU C 503      39.766  95.349  21.553  1.00 22.23     0.241 C 
ATOM      3  O   GLU C 503      39.606  96.459  21.053  1.00 30.39    -0.271 OA
ATOM      4  N   VAL C 504      39.580  94.218  20.875  1.00 14.81    -0.346 N 
ATOM      5  H   VAL C 504      39.678  93.435  21.216  1.00 14.81     0.163 HD
BRANCH   4   6
ATOM      6  CA  VAL C 504      39.186  94.215  19.464  1.00 14.81     0.182 C 
BRANCH   6   7
ATOM      7  C   VAL C 504      37.706  93.893  19.235  1.00 14.81     0.262 C 
ATOM      8  O   VAL C 504      37.055  93.321  20.105  1.00 11.58    -0.269 OA
ATOM      9  N   ASJ C 505      37.193  94.263  18.061  1.00  2.62    -0.246 NA
BRANCH   9  10
ATOM     10  CA  ASJ C 505      35.791  94.045  17.671  1.00  2.62     0.153 C 
BRANCH  10  11
ATOM     11  C   ASJ C 505      35.673  93.243  16.387  1.00  2.62     0.174 C 
BRANCH  11  12
ATOM     12  O   ASJ C 505      35.314  91.890  16.702  1.00 19.56    -0.391 OA
ATOM     13  HO  ASJ C 505      34.774  91.886  17.346  1.00 19.56     0.210 HD
ENDBRANCH  11  12
ENDBRANCH  10  11
BRANCH  10  14
ATOM     14  CB  ASJ C 505      35.086  95.376  17.443  1.00 12.55     0.143 C 
BRANCH  14  15
ATOM     15  CG  ASJ C 505      34.385  95.875  18.660  1.00 14.75     0.174 C 
ATOM     16  OD1 ASJ C 505      34.067  95.060  19.550  1.00 17.98    -0.648 OA
ATOM     17  OD2 ASJ C 505      34.128  97.089  18.714  1.00 18.38    -0.648 OA
ENDBRANCH  14  15
ENDBRANCH  10  14
ENDBRANCH   9  10
ENDBRANCH   6   7
BRANCH   6  18
ATOM     18  CB  VAL C 504      40.046  93.232  18.656  1.00 11.58     0.009 C 
ATOM     19  CG2 VAL C 504      40.003  91.852  19.295  1.00 11.58     0.012 C 
ATOM     20  CG1 VAL C 504      41.481  93.732  18.565  1.00 11.58     0.012 C 
ENDBRANCH   6  18
ENDBRANCH   4   6
ENDBRANCH   1   2
BRANCH   1  21
ATOM     21  CB  GLU C 503      38.978  94.925  23.892  1.00 30.39     0.045 C 
BRANCH  21  22
ATOM     22  CG  GLU C 503      39.326  94.685  25.353  1.00 30.39     0.116 C 
BRANCH  22  23
ATOM     23  CD  GLU C 503      38.124  94.336  26.210  1.00 30.39     0.172 C 
ATOM     24  OE1 GLU C 503      37.211  93.630  25.732  1.00 30.39    -0.648 OA
ATOM     25  OE2 GLU C 503      38.100  94.758  27.381  1.00 30.39    -0.648 OA
ENDBRANCH  22  23
ENDBRANCH  21  22
ENDBRANCH   1  21
BRANCH   1  26
ATOM     26  N   GLU C 503      40.804  96.490  23.415  1.00 22.23    -0.346 N 
ATOM     27  H   GLU C 503      40.408  97.181  23.090  1.00 22.23     0.163 HD
ATOM     28  C   ASP C 502      41.871  96.574  24.207  1.00 15.66     0.241 C 
ATOM     29  O   ASP C 502      42.460  95.590  24.673  1.00 17.69    -0.271 OA
BRANCH  28  30
ATOM     30  CA  ASP C 502      42.363  97.990  24.504  1.00 16.73     0.186 C 
BRANCH  30  31
ATOM     31  N   ASP C 502      42.716  98.189  25.901  1.00 28.47    -0.348 N 
ATOM     32  H   ASP C 502      43.561  98.165  26.058  1.00 28.47     0.163 HD
ATOM     33  C   ACE C 501      41.798  98.389  26.838  1.00  7.47     0.214 C 
ATOM     34  O   ACE C 501      40.588  98.401  26.607  1.00 12.06    -0.274 OA
ATOM     35  CH3 ACE C 501      42.308  98.596  28.251  1.00  7.47     0.117 C 
ENDBRANCH  30  31
BRANCH  30  36
ATOM     36  CB  ASP C 502      43.554  98.338  23.606  1.00 14.36     0.147 C 
BRANCH  36  37
ATOM     37  CG  ASP C 502      43.900  99.822  23.632  1.00 17.50     0.175 C 
ATOM     38  OD1 ASP C 502      43.017 100.655  23.926  1.00 20.94    -0.648 OA
ATOM     39  OD2 ASP C 502      45.061 100.161  23.341  1.00 19.93    -0.648 OA
ENDBRANCH  36  37
ENDBRANCH  30  36
ENDBRANCH  28  30
ENDBRANCH   1  26
TORSDOF 17
