REMARK  22 active torsions:
REMARK  status: ('A' for Active; 'I' for Inactive)
REMARK    1  A    between atoms: N_1  and  CA_2 
REMARK    2  A    between atoms: CA_2  and  CB_5 
REMARK    3  A    between atoms: CA_2  and  C_3 
REMARK       I    between atoms: C_3  and  N_15 
REMARK    4  A    between atoms: CB_5  and  CG_6 
REMARK    5  A    between atoms: N_15  and  CA_16 
REMARK    6  A    between atoms: CA_16  and  CB_19 
REMARK    7  A    between atoms: CA_16  and  C_17 
REMARK       I    between atoms: C_17  and  N_24 
REMARK    8  A    between atoms: CB_19  and  CG_20 
REMARK    9  A    between atoms: N_24  and  CA_25 
REMARK   10  A    between atoms: CA_25  and  C_26 
REMARK       I    between atoms: C_26  and  N_30 
REMARK   11  A    between atoms: N_30  and  CA_31 
REMARK   12  A    between atoms: CA_31  and  CB_34 
REMARK   13  A    between atoms: CA_31  and  C_32 
REMARK       I    between atoms: C_32  and  N_44 
REMARK   14  A    between atoms: CB_34  and  CG_35 
REMARK   15  A    between atoms: CZ_40  and  OH_41 
REMARK   16  A    between atoms: N_44  and  CA_45 
REMARK   17  A    between atoms: CA_45  and  CB_48 
REMARK   18  A    between atoms: CA_45  and  C_46 
REMARK   19  A    between atoms: CB_48  and  CG_49 
REMARK   20  A    between atoms: CG_49  and  CD_50 
REMARK   21  A    between atoms: CD_50  and  CE_51 
REMARK   22  A    between atoms: CE_51  and  NZ_52 
ROOT
ATOM      1  C   ALA I   3      45.307  30.450   9.312  0.30 45.63     0.240 C 
ATOM      2  O   ALA I   3      44.760  29.426   8.922  0.30 45.40    -0.271 OA
ATOM      3  N   TYR I   4      46.507  30.841   8.868  0.30 45.44    -0.346 N 
ATOM      4  H   TYR I   4      46.866  31.574   9.139  0.30 45.44     0.163 HD
ENDROOT
BRANCH   1   5
ATOM      5  CA  ALA I   3      44.583  31.356  10.362  0.30 46.01     0.172 C 
ATOM      6  CB  ALA I   3      45.295  31.375  11.662  0.30 45.75     0.042 C 
BRANCH   5   7
ATOM      7  N   ALA I   3      43.251  30.774  10.465  0.30 46.50    -0.346 N 
ATOM      8  H   ALA I   3      43.144  30.149   9.884  0.30 46.50     0.163 HD
ATOM      9  C   LEU I   2      42.257  31.088  11.305  0.30 47.15     0.241 C 
ATOM     10  O   LEU I   2      42.296  31.954  12.185  0.30 46.92    -0.271 OA
BRANCH   9  11
ATOM     11  CA  LEU I   2      40.986  30.323  10.913  0.30 47.70     0.177 C 
BRANCH  11  12
ATOM     12  N   LEU I   2      40.648  28.962  11.312  0.30 48.04    -0.346 N 
ATOM     13  C   PHE I   1      40.972  28.097  10.372  0.30 48.35     0.249 C 
ATOM     14  O   PHE I   1      41.493  28.507   9.348  0.30 48.51    -0.271 OA
ATOM     15  H   LEU I   2      40.285  28.824  12.080  0.30 48.04     0.163 HD
BRANCH  13  16
ATOM     16  CA  PHE I   1      40.607  26.637  10.476  0.30 48.56     0.278 C 
BRANCH  16  17
ATOM     17  N   PHE I   1      39.127  26.462  10.560  0.30 48.56    -0.066 N 
ATOM     18  H3  PHE I   1      38.791  26.378   9.740  0.30 48.56     0.275 HD
ATOM     19  H1  PHE I   1      38.941  25.732  11.033  0.30 48.56     0.275 HD
ATOM     20  H2  PHE I   1      38.766  27.172  10.957  0.30 48.56     0.275 HD
ENDBRANCH  16  17
BRANCH  16  21
ATOM     21  CB  PHE I   1      41.157  25.935   9.217  0.30 48.65     0.081 C 
BRANCH  21  22
ATOM     22  CG  PHE I   1      40.663  26.521   7.888  0.30 49.18    -0.056 A 
ATOM     23  CD1 PHE I   1      40.060  25.706   6.948  0.30 49.79     0.007 A 
ATOM     24  CE1 PHE I   1      39.624  26.220   5.736  0.30 50.05     0.001 A 
ATOM     25  CZ  PHE I   1      39.804  27.548   5.442  0.30 49.90     0.000 A 
ATOM     26  CE2 PHE I   1      40.417  28.365   6.349  0.30 49.43     0.001 A 
ATOM     27  CD2 PHE I   1      40.846  27.862   7.560  0.30 49.27     0.007 A 
ENDBRANCH  21  22
ENDBRANCH  16  21
ENDBRANCH  13  16
ENDBRANCH  11  12
BRANCH  11  28
ATOM     28  CB  LEU I   2      39.729  31.121  10.536  0.30 47.77     0.038 C 
BRANCH  28  29
ATOM     29  CG  LEU I   2      38.713  31.918  11.285  0.30 48.15    -0.020 C 
ATOM     30  CD1 LEU I   2      38.376  31.368  12.628  0.30 48.48     0.009 C 
ATOM     31  CD2 LEU I   2      39.278  33.313  11.308  0.30 48.19     0.009 C 
ENDBRANCH  28  29
ENDBRANCH  11  28
ENDBRANCH   9  11
ENDBRANCH   5   7
ENDBRANCH   1   5
BRANCH   3  32
ATOM     32  CA  TYR I   4      47.381  30.120   7.886  0.30 45.17     0.180 C 
BRANCH  32  33
ATOM     33  CB  TYR I   4      47.832  28.747   8.320  0.30 45.37     0.073 C 
BRANCH  33  34
ATOM     34  CG  TYR I   4      49.033  28.883   9.248  0.30 45.37    -0.056 A 
ATOM     35  CD2 TYR I   4      49.825  27.795   9.590  0.30 45.58     0.010 A 
ATOM     36  CE2 TYR I   4      50.896  27.933  10.455  0.30 45.96     0.037 A 
ATOM     37  CZ  TYR I   4      51.175  29.170  10.987  0.30 45.81     0.065 A 
ATOM     38  CE1 TYR I   4      50.401  30.264  10.663  0.30 45.70     0.037 A 
ATOM     39  CD1 TYR I   4      49.351  30.120   9.802  0.30 45.43     0.010 A 
BRANCH  37  40
ATOM     40  OH  TYR I   4      52.231  29.306  11.855  0.30 46.58    -0.361 OA
ATOM     41  HH  TYR I   4      52.199  30.062  12.219  0.30 46.58     0.217 HD
ENDBRANCH  37  40
ENDBRANCH  33  34
ENDBRANCH  32  33
BRANCH  32  42
ATOM     42  C   TYR I   4      47.141  30.206   6.384  0.30 45.00     0.241 C 
ATOM     43  N   LYS I   5      48.130  30.880   5.815  0.30 44.74    -0.345 N 
ATOM     44  H   LYS I   5      48.793  31.160   6.286  0.30 44.74     0.163 HD
ATOM     45  O   TYR I   4      46.218  29.631   5.797  0.30 44.60    -0.271 OA
BRANCH  43  46
ATOM     46  CA  LYS I   5      48.284  31.246   4.431  0.30 44.60     0.185 C 
BRANCH  46  47
ATOM     47  CB  LYS I   5      49.263  32.426   4.448  0.30 43.50     0.036 C 
BRANCH  47  48
ATOM     48  CG  LYS I   5      50.322  32.491   3.378  0.30 39.10     0.004 C 
BRANCH  48  49
ATOM     49  CD  LYS I   5      51.426  33.419   3.848  0.30 31.49     0.027 C 
BRANCH  49  50
ATOM     50  CE  LYS I   5      52.292  33.882   2.699  0.30 26.75     0.229 C 
BRANCH  50  51
ATOM     51  NZ  LYS I   5      53.040  35.034   3.032  0.30 17.53    -0.079 N 
ATOM     52  HZ1 LYS I   5      53.828  35.006   2.620  0.30 17.53     0.274 HD
ATOM     53  HZ2 LYS I   5      52.597  35.761   2.773  0.30 17.53     0.274 HD
ATOM     54  HZ3 LYS I   5      53.167  35.062   3.913  0.30 17.53     0.274 HD
ENDBRANCH  50  51
ENDBRANCH  49  50
ENDBRANCH  48  49
ENDBRANCH  47  48
ENDBRANCH  46  47
BRANCH  46  55
ATOM     55  C   LYS I   5      48.811  30.139   3.558  0.30 45.89     0.196 C 
ATOM     56  OXT LYS I   5      48.030  29.246   3.253  1.00 48.13    -0.646 OA
ATOM     57  O   LYS I   5      49.979  30.201   3.180  1.00 47.49    -0.646 OA
ENDBRANCH  46  55
ENDBRANCH  43  46
ENDBRANCH  32  42
ENDBRANCH   3  32
TORSDOF 22
