REMARK  22 active torsions:
REMARK  status: ('A' for Active; 'I' for Inactive)
REMARK    1  A    between atoms: N_1  and  CA_2 
REMARK    2  A    between atoms: CA_2  and  C_3 
REMARK    3  A    between atoms: CA_2  and  CB_5 
REMARK       I    between atoms: C_3  and  N_14 
REMARK    4  A    between atoms: CB_5  and  CG_6 
REMARK       I    between atoms: CG_6  and  ND2_8 
REMARK    5  A    between atoms: N_14  and  CA_15 
REMARK    6  A    between atoms: CA_15  and  CB_18 
REMARK    7  A    between atoms: CA_15  and  C_16 
REMARK       I    between atoms: C_16  and  N_24 
REMARK    8  A    between atoms: CB_18  and  CG_19 
REMARK    9  A    between atoms: CG_19  and  CD_20 
REMARK   10  A    between atoms: N_24  and  CA_25 
REMARK   11  A    between atoms: CA_25  and  C_26 
REMARK   12  A    between atoms: CA_25  and  CB_28 
REMARK       I    between atoms: C_26  and  N_36 
REMARK   13  A    between atoms: CB_28  and  CG_29 
REMARK   14  A    between atoms: N_36  and  CA_37 
REMARK   15  A    between atoms: CA_37  and  C_38 
REMARK   16  A    between atoms: CA_37  and  CB_40 
REMARK       I    between atoms: C_38  and  N_50 
REMARK   17  A    between atoms: CB_40  and  CG_41 
REMARK   18  A    between atoms: CZ_46  and  OH_47 
REMARK   19  A    between atoms: N_50  and  CA_51 
REMARK   20  A    between atoms: CA_51  and  C_52 
REMARK   21  A    between atoms: CA_51  and  CB_54 
REMARK   22  A    between atoms: CB_54  and  CG_55 
ROOT
ATOM      1  CA  PHE S   4      44.654  54.344  53.374  1.00 21.41     0.180 C 
ENDROOT
BRANCH   1   2
ATOM      2  N   PHE S   4      44.241  54.015  54.732  1.00 22.57    -0.346 N 
ATOM      3  H   PHE S   4      44.284  53.176  54.917  1.00 22.57     0.163 HD
ATOM      4  C   GLU S   3      43.835  54.939  55.602  1.00 26.46     0.241 C 
ATOM      5  O   GLU S   3      43.770  56.143  55.330  1.00 26.71    -0.271 OA
BRANCH   4   6
ATOM      6  CA  GLU S   3      43.374  54.426  56.956  1.00 28.27     0.177 C 
BRANCH   6   7
ATOM      7  CB  GLU S   3      41.857  54.507  56.902  1.00 28.84     0.045 C 
BRANCH   7   8
ATOM      8  CG  GLU S   3      41.110  54.331  58.180  1.00 31.31     0.116 C 
BRANCH   8   9
ATOM      9  CD  GLU S   3      39.627  54.331  57.900  1.00 32.39     0.172 C 
ATOM     10  OE2 GLU S   3      38.948  53.444  58.418  1.00 38.97    -0.648 OA
ATOM     11  OE1 GLU S   3      39.149  55.213  57.136  1.00 34.38    -0.648 OA
ENDBRANCH   8   9
ENDBRANCH   7   8
ENDBRANCH   6   7
BRANCH   6  12
ATOM     12  N   GLU S   3      43.911  55.315  58.006  1.00 29.65    -0.346 N 
ATOM     13  H   GLU S   3      43.409  55.993  58.173  1.00 29.65     0.163 HD
ATOM     14  C   ASN S   2      45.055  55.091  58.631  1.00 31.60     0.249 C 
ATOM     15  O   ASN S   2      45.665  54.032  58.570  1.00 31.89    -0.271 OA
BRANCH  14  16
ATOM     16  CA  ASN S   2      45.599  56.280  59.442  1.00 33.47     0.283 C 
BRANCH  16  17
ATOM     17  N   ASN S   2      44.556  57.252  59.864  1.00 34.35    -0.066 N 
ATOM     18  H2  ASN S   2      44.204  57.641  59.145  1.00 34.35     0.275 HD
ATOM     19  H3  ASN S   2      43.917  56.826  60.313  1.00 34.35     0.275 HD
ATOM     20  H1  ASN S   2      44.922  57.872  60.387  1.00 34.35     0.275 HD
ENDBRANCH  16  17
BRANCH  16  21
ATOM     21  CB  ASN S   2      46.390  55.842  60.661  1.00 34.36     0.145 C 
BRANCH  21  22
ATOM     22  CG  ASN S   2      47.389  56.907  61.099  1.00 36.60     0.217 C 
ATOM     23  OD1 ASN S   2      47.488  58.008  60.492  1.00 40.55    -0.274 OA
ATOM     24  ND2 ASN S   2      48.136  56.597  62.149  1.00 40.03    -0.370 N 
ATOM     25 2HD2 ASN S   2      48.039  55.835  62.536  1.00 40.03     0.159 HD
ATOM     26 1HD2 ASN S   2      48.718  57.158  62.443  1.00 40.03     0.159 HD
ENDBRANCH  21  22
ENDBRANCH  16  21
ENDBRANCH  14  16
ENDBRANCH   6  12
ENDBRANCH   4   6
ENDBRANCH   1   2
BRANCH   1  27
ATOM     27  C   PHE S   4      43.530  54.050  52.383  1.00 20.14     0.241 C 
ATOM     28  O   PHE S   4      42.787  53.086  52.529  1.00 18.43    -0.271 OA
ATOM     29  N   TYR S   5      43.457  54.876  51.347  1.00 19.70    -0.346 N 
ATOM     30  H   TYR S   5      43.961  55.567  51.255  1.00 19.70     0.163 HD
BRANCH  29  31
ATOM     31  CA  TYR S   5      42.504  54.688  50.254  1.00 19.15     0.180 C 
BRANCH  31  32
ATOM     32  C   TYR S   5      43.312  54.217  49.055  1.00 19.17     0.241 C 
ATOM     33  N   PHE S   6      43.089  52.967  48.660  1.00 19.00    -0.344 N 
ATOM     34  H   PHE S   6      42.539  52.439  49.058  1.00 19.00     0.163 HD
ATOM     35  O   TYR S   5      44.151  54.949  48.524  1.00 19.39    -0.271 OA
BRANCH  33  36
ATOM     36  CA  PHE S   6      43.753  52.362  47.512  1.00 19.20     0.189 C 
BRANCH  36  37
ATOM     37  C   PHE S   6      42.850  52.220  46.294  1.00 19.81     0.197 C 
ATOM     38  O   PHE S   6      41.614  52.228  46.430  1.00 18.53    -0.646 OA
ATOM     39  OXT PHE S   6      43.435  52.080  45.187  1.00 20.48    -0.646 OA
ENDBRANCH  36  37
BRANCH  36  40
ATOM     40  CB  PHE S   6      44.308  50.992  47.912  1.00 19.81     0.074 C 
BRANCH  40  41
ATOM     41  CG  PHE S   6      45.489  51.061  48.887  1.00 21.45    -0.056 A 
ATOM     42  CD2 PHE S   6      45.890  49.939  49.586  1.00 24.56     0.007 A 
ATOM     43  CE2 PHE S   6      46.967  49.998  50.482  1.00 25.95     0.001 A 
ATOM     44  CZ  PHE S   6      47.655  51.171  50.632  1.00 23.46     0.000 A 
ATOM     45  CE1 PHE S   6      47.287  52.287  49.924  1.00 24.74     0.001 A 
ATOM     46  CD1 PHE S   6      46.225  52.241  49.062  1.00 22.31     0.007 A 
ENDBRANCH  40  41
ENDBRANCH  36  40
ENDBRANCH  33  36
ENDBRANCH  31  32
BRANCH  31  47
ATOM     47  CB  TYR S   5      41.778  56.016  49.973  1.00 19.45     0.073 C 
BRANCH  47  48
ATOM     48  CG  TYR S   5      40.925  56.077  48.734  1.00 19.88    -0.056 A 
ATOM     49  CD1 TYR S   5      40.322  54.946  48.194  1.00 18.15     0.010 A 
ATOM     50  CE1 TYR S   5      39.569  55.016  47.051  1.00 18.26     0.037 A 
ATOM     51  CZ  TYR S   5      39.382  56.242  46.431  1.00 18.69     0.065 A 
ATOM     52  CE2 TYR S   5      39.949  57.369  46.950  1.00 19.96     0.037 A 
ATOM     53  CD2 TYR S   5      40.727  57.287  48.094  1.00 21.89     0.010 A 
BRANCH  51  54
ATOM     54  OH  TYR S   5      38.632  56.336  45.291  1.00 21.24    -0.361 OA
ATOM     55  HH  TYR S   5      38.309  55.583  45.105  1.00 21.24     0.217 HD
ENDBRANCH  51  54
ENDBRANCH  47  48
ENDBRANCH  31  47
ENDBRANCH  29  31
ENDBRANCH   1  27
BRANCH   1  56
ATOM     56  CB  PHE S   4      45.864  53.505  53.022  1.00 21.76     0.073 C 
BRANCH  56  57
ATOM     57  CG  PHE S   4      47.112  53.946  53.708  1.00 21.60    -0.056 A 
ATOM     58  CD2 PHE S   4      47.337  53.620  55.027  1.00 23.13     0.007 A 
ATOM     59  CE2 PHE S   4      48.458  54.049  55.672  1.00 23.23     0.001 A 
ATOM     60  CZ  PHE S   4      49.410  54.742  54.988  1.00 22.51     0.000 A 
ATOM     61  CE1 PHE S   4      49.207  55.082  53.668  1.00 22.53     0.001 A 
ATOM     62  CD1 PHE S   4      48.061  54.687  53.025  1.00 22.71     0.007 A 
ENDBRANCH  56  57
ENDBRANCH   1  56
TORSDOF 22
