REMARK  9 active torsions:
REMARK  status: ('A' for Active; 'I' for Inactive)
REMARK    1  A    between atoms: N_1  and  CA_2 
REMARK    2  A    between atoms: CA_2  and  CB_5 
REMARK    3  A    between atoms: CA_2  and  C_3 
REMARK       I    between atoms: C_3  and  N_19 
REMARK    4  A    between atoms: CB_5  and  CG_6 
REMARK    5  A    between atoms: CA_20  and  C_21 
REMARK       I    between atoms: C_21  and  N_26 
REMARK    6  A    between atoms: N_26  and  CA_27 
REMARK    7  A    between atoms: CA_27  and  C_28 
REMARK    8  A    between atoms: CA_27  and  CB_30 
REMARK    9  A    between atoms: CB_30  and  CG_31 
ROOT
ATOM      1  C   TRP D   1      11.680 -12.683  36.444  1.00 35.88     0.251 C 
ATOM      2  O   TRP D   1      10.470 -12.807  36.855  1.00 38.57    -0.271 OA
ATOM      3  N   PRO D   2      12.378 -11.627  36.289  1.00 34.89    -0.337 N 
ATOM      4  CA  PRO D   2      11.974 -10.240  36.692  1.00 35.03     0.179 C 
ATOM      5  CB  PRO D   2      13.200  -9.467  36.296  1.00 35.34     0.037 C 
ATOM      6  CG  PRO D   2      14.307 -10.464  36.647  1.00 35.42     0.022 C 
ATOM      7  CD  PRO D   2      13.787 -11.860  36.562  1.00 35.14     0.127 C 
ENDROOT
BRANCH   4   8
ATOM      8  C   PRO D   2      10.683  -9.603  36.192  1.00 35.70     0.241 C 
ATOM      9  O   PRO D   2       9.605 -10.177  36.147  1.00 34.88    -0.271 OA
ATOM     10  N   TRP D   3      10.948  -8.331  35.827  1.00 36.87    -0.344 N 
ATOM     11  H   TRP D   3      11.670  -7.928  36.063  1.00 36.87     0.163 HD
BRANCH  10  12
ATOM     12  CA  TRP D   3      10.048  -7.468  34.984  1.00 37.56     0.190 C 
BRANCH  12  13
ATOM     13  C   TRP D   3       8.615  -7.894  34.491  1.00 38.92     0.197 C 
ATOM     14  OXT TRP D   3       8.275  -9.118  34.369  1.00 41.38    -0.646 OA
ATOM     15  O   TRP D   3       7.788  -6.907  34.176  1.00 40.06    -0.646 OA
ENDBRANCH  12  13
BRANCH  12  16
ATOM     16  CB  TRP D   3      10.856  -6.906  33.756  1.00 36.55     0.077 C 
BRANCH  16  17
ATOM     17  CG  TRP D   3      11.968  -5.941  34.201  1.00 35.48    -0.028 A 
ATOM     18  CD1 TRP D   3      12.035  -5.242  35.411  1.00 37.13     0.096 A 
ATOM     19  NE1 TRP D   3      13.177  -4.464  35.441  1.00 40.71    -0.365 N 
ATOM     20  HE1 TRP D   3      13.409  -3.950  36.090  1.00 40.71     0.165 HD
ATOM     21  CE2 TRP D   3      13.889  -4.636  34.273  1.00 36.12     0.042 A 
ATOM     22  CD2 TRP D   3      13.149  -5.572  33.452  1.00 33.28    -0.002 A 
ATOM     23  CZ2 TRP D   3      15.106  -4.031  33.866  1.00 34.49     0.030 A 
ATOM     24  CE3 TRP D   3      13.639  -5.908  32.164  1.00 31.46     0.014 A 
ATOM     25  CZ3 TRP D   3      14.855  -5.339  31.739  1.00 32.66     0.001 A 
ATOM     26  CH2 TRP D   3      15.586  -4.385  32.601  1.00 36.62     0.002 A 
ENDBRANCH  16  17
ENDBRANCH  12  16
ENDBRANCH  10  12
ENDBRANCH   4   8
BRANCH   1  27
ATOM     27  CA  TRP D   1      12.418 -13.908  35.820  1.00 34.78     0.279 C 
BRANCH  27  28
ATOM     28  CB  TRP D   1      11.585 -14.573  34.716  1.00 34.63     0.083 C 
BRANCH  28  29
ATOM     29  CG  TRP D   1      12.408 -15.630  33.920  1.00 37.87    -0.028 A 
ATOM     30  CD1 TRP D   1      12.009 -16.331  32.783  1.00 40.68     0.096 A 
ATOM     31  NE1 TRP D   1      13.039 -17.140  32.346  1.00 42.18    -0.365 N 
ATOM     32  HE1 TRP D   1      13.009 -17.660  31.662  1.00 42.18     0.165 HD
ATOM     33  CE2 TRP D   1      14.129 -16.978  33.188  1.00 41.11     0.042 A 
ATOM     34  CD2 TRP D   1      13.766 -16.044  34.187  1.00 38.74    -0.002 A 
ATOM     35  CZ2 TRP D   1      15.420 -17.588  33.145  1.00 41.13     0.030 A 
ATOM     36  CE3 TRP D   1      14.729 -15.683  35.153  1.00 40.52     0.014 A 
ATOM     37  CZ3 TRP D   1      16.008 -16.294  35.114  1.00 41.02     0.001 A 
ATOM     38  CH2 TRP D   1      16.336 -17.228  34.107  1.00 39.74     0.002 A 
ENDBRANCH  28  29
ENDBRANCH  27  28
BRANCH  27  39
ATOM     39  N   TRP D   1      12.755 -14.945  36.863  1.00 33.45    -0.066 N 
ATOM     40  H3  TRP D   1      12.005 -15.318  37.164  1.00 33.45     0.275 HD
ATOM     41  H2  TRP D   1      13.186 -14.558  37.539  1.00 33.45     0.275 HD
ATOM     42  H1  TRP D   1      13.273 -15.572  36.502  1.00 33.45     0.275 HD
ENDBRANCH  27  39
ENDBRANCH   1  27
TORSDOF 9
