REMARK  16 active torsions:
REMARK  status: ('A' for Active; 'I' for Inactive)
REMARK    1  A    between atoms: N_1  and  CA_2 
REMARK    2  A    between atoms: CA_2  and  C_3 
REMARK    3  A    between atoms: CA_2  and  CB_5 
REMARK       I    between atoms: C_3  and  N_11 
REMARK    4  A    between atoms: N_11  and  CA_12 
REMARK    5  A    between atoms: CA_12  and  C_13 
REMARK    6  A    between atoms: CA_12  and  CB_15 
REMARK       I    between atoms: C_13  and  N_20 
REMARK    7  A    between atoms: CB_15  and  CG1_16 
REMARK    8  A    between atoms: N_20  and  CA_21 
REMARK    9  A    between atoms: CA_21  and  C_22 
REMARK       I    between atoms: C_22  and  N_26 
REMARK   10  A    between atoms: N_26  and  CA_27 
REMARK   11  A    between atoms: CA_27  and  CB_30 
REMARK   12  A    between atoms: CA_27  and  C_28 
REMARK   13  A    between atoms: CB_30  and  CG_31 
REMARK   14  A    between atoms: CG_31  and  CD_32 
REMARK   15  A    between atoms: CD_32  and  CE_33 
REMARK   16  A    between atoms: CE_33  and  NZ_34 
ROOT
ATOM      1  C   ILE P   2       5.441  20.251  -5.879  1.00 41.40     0.241 C 
ATOM      2  O   ILE P   2       6.629  20.050  -6.175  1.00 41.61    -0.271 OA
ATOM      3  N   ALA P   3       4.703  21.277  -6.300  1.00 41.46    -0.346 N 
ATOM      4  H   ALA P   3       3.869  21.329  -6.095  1.00 41.46     0.163 HD
ENDROOT
BRANCH   1   5
ATOM      5  CA  ILE P   2       4.658  19.331  -4.949  1.00 41.22     0.180 C 
BRANCH   5   6
ATOM      6  CB  ILE P   2       4.910  19.916  -3.570  1.00 41.07     0.013 C 
ATOM      7  CG2 ILE P   2       5.993  19.132  -2.843  1.00 40.92     0.012 C 
BRANCH   6   8
ATOM      8  CG1 ILE P   2       5.303  21.380  -3.705  1.00 41.09     0.002 C 
ATOM      9  CD1 ILE P   2       4.592  22.291  -2.732  1.00 41.85     0.005 C 
ENDBRANCH   6   8
ENDBRANCH   5   6
BRANCH   5  10
ATOM     10  N   ILE P   2       4.952  17.913  -4.904  1.00 40.98    -0.346 N 
ATOM     11  C   VAL P   1       3.951  17.172  -4.449  1.00 40.89     0.249 C 
ATOM     12  O   VAL P   1       2.837  17.637  -4.218  1.00 40.76    -0.271 OA
ATOM     13  H   ILE P   2       5.728  17.651  -5.165  1.00 40.98     0.163 HD
BRANCH  11  14
ATOM     14  CA  VAL P   1       4.187  15.679  -4.223  1.00 40.81     0.278 C 
BRANCH  14  15
ATOM     15  CB  VAL P   1       2.983  15.068  -3.493  1.00 40.75     0.017 C 
ATOM     16  CG1 VAL P   1       1.744  15.120  -4.371  1.00 40.27     0.012 C 
ATOM     17  CG2 VAL P   1       3.270  13.630  -3.085  1.00 40.35     0.012 C 
ENDBRANCH  14  15
BRANCH  14  18
ATOM     18  N   VAL P   1       5.409  15.441  -3.483  1.00 41.10    -0.066 N 
ATOM     19  H1  VAL P   1       5.783  14.684  -3.763  1.00 41.10     0.275 HD
ATOM     20  H3  VAL P   1       5.223  15.376  -2.615  1.00 41.10     0.275 HD
ATOM     21  H2  VAL P   1       5.973  16.117  -3.615  1.00 41.10     0.275 HD
ENDBRANCH  14  18
ENDBRANCH  11  14
ENDBRANCH   5  10
ENDBRANCH   1   5
BRANCH   3  22
ATOM     22  CA  ALA P   3       5.117  22.408  -7.113  1.00 41.49     0.172 C 
ATOM     23  CB  ALA P   3       5.789  23.430  -6.208  1.00 41.44     0.042 C 
BRANCH  22  24
ATOM     24  C   ALA P   3       6.001  22.121  -8.307  1.00 41.37     0.240 C 
ATOM     25  O   ALA P   3       6.294  20.982  -8.672  1.00 41.45    -0.271 OA
ATOM     26  N   LYS P   4       6.405  23.250  -8.934  1.00 41.15    -0.347 N 
ATOM     27  H   LYS P   4       6.097  24.016  -8.694  1.00 41.15     0.163 HD
BRANCH  26  28
ATOM     28  CA  LYS P   4       7.341  23.383 -10.023  1.00 40.89     0.162 C 
BRANCH  28  29
ATOM     29  CB  LYS P   4       8.547  24.165  -9.489  1.00 40.64     0.033 C 
BRANCH  29  30
ATOM     30  CG  LYS P   4       8.493  24.418  -7.989  1.00 49.46     0.004 C 
BRANCH  30  31
ATOM     31  CD  LYS P   4       9.113  25.754  -7.614  1.00 47.65     0.027 C 
BRANCH  31  32
ATOM     32  CE  LYS P   4       8.126  26.714  -6.964  1.00 46.32     0.229 C 
BRANCH  32  33
ATOM     33  NZ  LYS P   4       8.689  28.081  -6.827  1.00 44.97    -0.079 N 
ATOM     34  HZ3 LYS P   4       9.290  28.220  -7.468  1.00 44.97     0.274 HD
ATOM     35  HZ1 LYS P   4       8.035  28.680  -6.899  1.00 44.97     0.274 HD
ATOM     36  HZ2 LYS P   4       9.080  28.163  -6.031  1.00 44.97     0.274 HD
ENDBRANCH  32  33
ENDBRANCH  31  32
ENDBRANCH  30  31
ENDBRANCH  29  30
ENDBRANCH  28  29
BRANCH  28  37
ATOM     37  C   LYS P   4       7.784  22.040 -10.595  1.00 40.96     0.219 C 
ATOM     38  O   LYS P   4       7.367  21.660 -11.687  1.00 40.89    -0.287 OA
ENDBRANCH  28  37
ENDBRANCH  26  28
ENDBRANCH  22  24
ENDBRANCH   3  22
TORSDOF 16
