REMARK  21 active torsions:
REMARK  status: ('A' for Active; 'I' for Inactive)
REMARK    1  A    between atoms: N_1  and  CA_2 
REMARK    2  A    between atoms: CA_2  and  C_3 
REMARK       I    between atoms: C_3  and  N_9 
REMARK    3  A    between atoms: N_9  and  CA_10 
REMARK    4  A    between atoms: CA_10  and  CB_13 
REMARK    5  A    between atoms: CA_10  and  C_11 
REMARK       I    between atoms: C_11  and  N_18 
REMARK    6  A    between atoms: CB_13  and  CG_14 
REMARK    7  A    between atoms: N_18  and  CA_19 
REMARK    8  A    between atoms: CA_19  and  CB_22 
REMARK    9  A    between atoms: CA_19  and  C_20 
REMARK       I    between atoms: C_20  and  N_26 
REMARK   10  A    between atoms: N_26  and  CA_27 
REMARK   11  A    between atoms: CA_27  and  CB_30 
REMARK   12  A    between atoms: CA_27  and  C_28 
REMARK       I    between atoms: C_28  and  N_40 
REMARK   13  A    between atoms: CB_30  and  CG_31 
REMARK   14  A    between atoms: CZ_36  and  OH_37 
REMARK   15  A    between atoms: N_40  and  CA_41 
REMARK   16  A    between atoms: CA_41  and  CB_44 
REMARK   17  A    between atoms: CA_41  and  C_42 
REMARK   18  A    between atoms: CB_44  and  CG_45 
REMARK   19  A    between atoms: CG_45  and  CD_46 
REMARK   20  A    between atoms: CD_46  and  CE_47 
REMARK   21  A    between atoms: CE_47  and  NZ_48 
ROOT
ATOM      1  C   VAL P   3      34.498   4.885  -5.862  0.50 59.03     0.241 C 
ATOM      2  O   VAL P   3      34.100   6.006  -6.230  0.50 59.49    -0.271 OA
ATOM      3  N   TYR P   4      33.559   4.077  -5.362  0.50 59.73    -0.346 N 
ATOM      4  H   TYR P   4      33.565   3.352  -4.900  0.50 59.73     0.163 HD
ENDROOT
BRANCH   3   5
ATOM      5  CA  TYR P   4      32.412   4.724  -5.793  0.50 59.99     0.180 C 
BRANCH   5   6
ATOM      6  CB  TYR P   4      31.987   4.021  -7.121  0.50 59.48     0.073 C 
BRANCH   6   7
ATOM      7  CG  TYR P   4      31.670   4.911  -8.348  0.50 58.89    -0.056 A 
ATOM      8  CD2 TYR P   4      31.712   4.393  -9.653  0.50 58.48     0.010 A 
ATOM      9  CE2 TYR P   4      31.262   5.140 -10.728  0.50 57.98     0.037 A 
ATOM     10  CZ  TYR P   4      30.820   6.425 -10.533  0.50 58.05     0.065 A 
ATOM     11  CE1 TYR P   4      30.847   6.984  -9.249  0.50 57.81     0.037 A 
ATOM     12  CD1 TYR P   4      31.271   6.205  -8.156  0.50 58.25     0.010 A 
BRANCH  10  13
ATOM     13  OH  TYR P   4      30.334   7.148 -11.600  0.50 58.00    -0.361 OA
ATOM     14  HH  TYR P   4      30.383   6.684 -12.299  0.50 58.00     0.217 HD
ENDBRANCH  10  13
ENDBRANCH   6   7
ENDBRANCH   5   6
BRANCH   5  15
ATOM     15  C   TYR P   4      31.333   4.994  -4.835  0.50 60.88     0.241 C 
ATOM     16  N   LYS P   5      30.719   6.053  -5.313  0.50 60.84    -0.347 N 
ATOM     17  H   LYS P   5      30.964   6.414  -6.054  0.50 60.84     0.163 HD
ATOM     18  O   TYR P   4      31.101   4.427  -3.769  0.50 61.26    -0.271 OA
BRANCH  16  19
ATOM     19  CA  LYS P   5      29.598   6.750  -4.717  0.50 61.28     0.162 C 
BRANCH  19  20
ATOM     20  CB  LYS P   5      29.600   6.612  -3.220  0.50 60.15     0.033 C 
BRANCH  20  21
ATOM     21  CG  LYS P   5      28.307   7.165  -2.657  0.50 59.32     0.004 C 
BRANCH  21  22
ATOM     22  CD  LYS P   5      27.293   7.407  -3.756  0.50 58.12     0.027 C 
BRANCH  22  23
ATOM     23  CE  LYS P   5      26.678   8.782  -3.672  0.50 56.96     0.229 C 
BRANCH  23  24
ATOM     24  NZ  LYS P   5      25.246   8.777  -4.080  0.50 55.60    -0.079 N 
ATOM     25  HZ2 LYS P   5      24.992   7.944  -4.263  0.50 55.60     0.274 HD
ATOM     26  HZ1 LYS P   5      25.142   9.284  -4.804  0.50 55.60     0.274 HD
ATOM     27  HZ3 LYS P   5      24.747   9.100  -3.418  0.50 55.60     0.274 HD
ENDBRANCH  23  24
ENDBRANCH  22  23
ENDBRANCH  21  22
ENDBRANCH  20  21
ENDBRANCH  19  20
BRANCH  19  28
ATOM     28  C   LYS P   5      29.631   8.213  -5.124  0.50 61.70     0.219 C 
ATOM     29  O   LYS P   5      29.917   8.529  -6.279  0.50 62.43    -0.287 OA
ENDBRANCH  19  28
ENDBRANCH  16  19
ENDBRANCH   5  15
ENDBRANCH   3   5
BRANCH   1  30
ATOM     30  CA  VAL P   3      35.993   4.668  -6.053  0.50 58.35     0.180 C 
BRANCH  30  31
ATOM     31  CB  VAL P   3      36.151   4.412  -7.563  0.50 57.85     0.009 C 
ATOM     32  CG1 VAL P   3      35.489   5.494  -8.391  0.50 57.49     0.012 C 
ATOM     33  CG2 VAL P   3      37.620   4.294  -7.936  0.50 57.23     0.012 C 
ENDBRANCH  30  31
BRANCH  30  34
ATOM     34  N   VAL P   3      37.009   3.785  -5.521  0.50 58.27    -0.346 N 
ATOM     35  C   LEU P   2      37.251   2.515  -5.137  0.50 58.43     0.241 C 
ATOM     36  O   LEU P   2      36.463   1.605  -4.934  0.50 58.37    -0.271 OA
ATOM     37  H   VAL P   3      37.697   4.293  -5.430  0.50 58.27     0.163 HD
BRANCH  35  38
ATOM     38  CA  LEU P   2      38.759   2.535  -4.945  0.50 58.44     0.177 C 
BRANCH  38  39
ATOM     39  N   LEU P   2      39.403   2.051  -3.731  0.50 58.68    -0.346 N 
ATOM     40  H   LEU P   2      39.293   1.277  -3.372  0.50 58.68     0.163 HD
ATOM     41  C   ALA P   1      40.104   3.133  -3.475  0.50 58.87     0.248 C 
ATOM     42  O   ALA P   1      39.940   4.085  -4.232  0.50 59.28    -0.271 OA
BRANCH  41  43
ATOM     43  CA  ALA P   1      41.098   3.318  -2.340  0.50 58.66     0.270 C 
ATOM     44  CB  ALA P   1      40.589   2.784  -1.016  0.50 57.92     0.050 C 
BRANCH  43  45
ATOM     45  N   ALA P   1      41.410   4.765  -2.201  0.50 58.63    -0.067 N 
ATOM     46  H1  ALA P   1      42.139   4.865  -1.700  0.50 58.63     0.275 HD
ATOM     47  H2  ALA P   1      41.554   5.117  -3.006  0.50 58.63     0.275 HD
ATOM     48  H3  ALA P   1      40.725   5.181  -1.814  0.50 58.63     0.275 HD
ENDBRANCH  43  45
ENDBRANCH  41  43
ENDBRANCH  38  39
BRANCH  38  49
ATOM     49  CB  LEU P   2      39.562   2.065  -6.165  0.50 58.10     0.038 C 
BRANCH  49  50
ATOM     50  CG  LEU P   2      40.470   3.117  -6.813  0.50 57.94    -0.020 C 
ATOM     51  CD2 LEU P   2      40.412   3.019  -8.318  0.50 57.90     0.009 C 
ATOM     52  CD1 LEU P   2      41.899   2.953  -6.334  0.50 57.66     0.009 C 
ENDBRANCH  49  50
ENDBRANCH  38  49
ENDBRANCH  35  38
ENDBRANCH  30  34
ENDBRANCH   1  30
TORSDOF 21
