REMARK  15 active torsions:
REMARK  status: ('A' for Active; 'I' for Inactive)
REMARK    1  A    between atoms: N_1  and  CA_2 
REMARK    2  A    between atoms: CA_2  and  C_3 
REMARK       I    between atoms: C_3  and  N_9 
REMARK    3  A    between atoms: N_9  and  CA_10 
REMARK    4  A    between atoms: CA_10  and  CB_13 
REMARK    5  A    between atoms: CA_10  and  C_11 
REMARK       I    between atoms: C_11  and  N_19 
REMARK    6  A    between atoms: CB_13  and  CG_14 
REMARK    7  A    between atoms: CG_14  and  CD_15 
REMARK    8  A    between atoms: N_19  and  CA_20 
REMARK    9  A    between atoms: CA_20  and  C_21 
REMARK   10  A    between atoms: CA_20  and  CB_23 
REMARK       I    between atoms: C_21  and  N_28 
REMARK   11  A    between atoms: CB_23  and  OG1_25 
REMARK   12  A    between atoms: N_28  and  CA_29 
REMARK   13  A    between atoms: CA_29  and  CB_32 
REMARK   14  A    between atoms: CA_29  and  C_30 
REMARK   15  A    between atoms: CB_32  and  CG_33 
ROOT
ATOM      1  C   GLU S   2     -11.738  13.810  33.365  1.00 67.93     0.241 C 
ATOM      2  O   GLU S   2     -12.563  14.732  33.295  1.00 66.60    -0.271 OA
ATOM      3  N   THR S   3     -10.540  13.862  32.797  1.00 66.34    -0.344 N 
ATOM      4  H   THR S   3      -9.968  13.221  32.835  1.00 66.34     0.163 HD
ENDROOT
BRANCH   3   5
ATOM      5  CA  THR S   3     -10.079  15.024  32.049  1.00 65.04     0.205 C 
BRANCH   5   6
ATOM      6  C   THR S   3     -10.227  14.796  30.553  1.00 64.78     0.243 C 
ATOM      7  O   THR S   3      -9.249  14.603  29.821  1.00 64.25    -0.271 OA
ATOM      8  N   PHE S   4     -11.477  14.818  30.111  1.00 64.25    -0.344 N 
ATOM      9  H   PHE S   4     -12.157  14.964  30.617  1.00 64.25     0.163 HD
BRANCH   8  10
ATOM     10  CA  PHE S   4     -11.818  14.595  28.715  1.00 63.65     0.189 C 
BRANCH  10  11
ATOM     11  CB  PHE S   4     -13.266  14.169  28.619  1.00 60.49     0.074 C 
BRANCH  11  12
ATOM     12  CG  PHE S   4     -13.555  12.892  29.307  1.00 55.48    -0.056 A 
ATOM     13  CD2 PHE S   4     -12.821  11.753  29.012  1.00 51.26     0.007 A 
ATOM     14  CE2 PHE S   4     -13.135  10.539  29.604  1.00 48.18     0.001 A 
ATOM     15  CZ  PHE S   4     -14.167  10.455  30.505  1.00 46.44     0.000 A 
ATOM     16  CE1 PHE S   4     -14.903  11.586  30.817  1.00 48.00     0.001 A 
ATOM     17  CD1 PHE S   4     -14.585  12.806  30.225  1.00 50.38     0.007 A 
ENDBRANCH  11  12
ENDBRANCH  10  11
BRANCH  10  18
ATOM     18  C   PHE S   4     -11.634  15.830  27.872  1.00 64.82     0.197 C 
ATOM     19  O   PHE S   4     -11.644  16.949  28.432  1.00 66.03    -0.646 OA
ATOM     20  OXT PHE S   4     -11.515  15.650  26.645  1.00 65.83    -0.646 OA
ENDBRANCH  10  18
ENDBRANCH   8  10
ENDBRANCH   5   6
BRANCH   5  21
ATOM     21  CB  THR S   3      -8.622  15.309  32.394  1.00 64.83     0.146 C 
ATOM     22  CG2 THR S   3      -8.174  16.637  31.818  1.00 63.45     0.042 C 
BRANCH  21  23
ATOM     23  OG1 THR S   3      -8.496  15.351  33.817  1.00 64.80    -0.393 OA
ATOM     24  HG1 THR S   3      -7.697  15.506  34.023  1.00 64.80     0.210 HD
ENDBRANCH  21  23
ENDBRANCH   5  21
ENDBRANCH   3   5
BRANCH   1  25
ATOM     25  CA  GLU S   2     -12.039  12.515  34.137  1.00 70.09     0.177 C 
BRANCH  25  26
ATOM     26  CB  GLU S   2     -13.184  11.742  33.476  1.00 72.94     0.045 C 
BRANCH  26  27
ATOM     27  CG  GLU S   2     -13.521  10.441  34.201  1.00 78.29     0.116 C 
BRANCH  27  28
ATOM     28  CD  GLU S   2     -15.008  10.156  34.269  1.00 81.85     0.172 C 
ATOM     29  OE1 GLU S   2     -15.598   9.795  33.229  1.00 85.61    -0.648 OA
ATOM     30  OE2 GLU S   2     -15.592  10.296  35.368  1.00 84.00    -0.648 OA
ENDBRANCH  27  28
ENDBRANCH  26  27
ENDBRANCH  25  26
BRANCH  25  31
ATOM     31  N   GLU S   2     -12.376  12.748  35.542  1.00 70.96    -0.346 N 
ATOM     32  C   ALA S   1     -12.038  11.881  36.494  1.00 72.19     0.248 C 
ATOM     33  O   ALA S   1     -11.404  10.848  36.260  1.00 72.37    -0.271 OA
ATOM     34  H   GLU S   2     -12.802  13.480  35.689  1.00 70.96     0.163 HD
BRANCH  32  35
ATOM     35  CA  ALA S   1     -12.469  12.221  37.928  1.00 72.54     0.270 C 
ATOM     36  CB  ALA S   1     -13.523  13.330  37.917  1.00 73.45     0.050 C 
BRANCH  35  37
ATOM     37  N   ALA S   1     -11.315  12.622  38.792  1.00 73.25    -0.067 N 
ATOM     38  H2  ALA S   1     -10.695  11.984  38.775  1.00 73.25     0.275 HD
ATOM     39  H1  ALA S   1     -11.597  12.739  39.628  1.00 73.25     0.275 HD
ATOM     40  H3  ALA S   1     -10.966  13.382  38.488  1.00 73.25     0.275 HD
ENDBRANCH  35  37
ENDBRANCH  32  35
ENDBRANCH  25  31
ENDBRANCH   1  25
TORSDOF 15
