REMARK  7 active torsions:
REMARK  status: ('A' for Active; 'I' for Inactive)
REMARK    1  A    between atoms: N_1  and  CA_2 
REMARK    2  A    between atoms: CA_2  and  C_3 
REMARK       I    between atoms: C_3  and  N_8 
REMARK    3  A    between atoms: N_8  and  CA_9 
REMARK    4  A    between atoms: CA_9  and  C_10 
REMARK    5  A    between atoms: CA_9  and  CB_12 
REMARK    6  A    between atoms: CB_12  and  CG_13 
REMARK    7  A    between atoms: CZ_18  and  OH_19 
ROOT
HETATM    1  CA  TYR A 502      -2.133  29.729  -9.153  1.00 10.00     0.189 C 
ENDROOT
BRANCH   1   2
HETATM    2  N   TYR A 502      -3.021  29.999  -8.017  1.00 10.00    -0.345 N 
HETATM    3  C   GLY A 501      -2.850  29.382  -6.862  1.00 10.00     0.243 C 
HETATM    4  O   GLY A 501      -1.984  28.516  -6.662  1.00 10.00    -0.272 OA
HETATM    5  H   TYR A 502      -3.639  30.576  -8.172  1.00 10.00     0.163 HD
BRANCH   3   6
HETATM    6  CA  GLY A 501      -3.806  29.803  -5.749  1.00 10.00     0.332 C 
BRANCH   6   7
HETATM    7  N   GLY A 501      -3.506  29.042  -4.526  1.00 10.00    -0.071 N 
HETATM    8  H1  GLY A 501      -4.266  28.762  -4.156  1.00 10.00     0.274 HD
HETATM    9  H2  GLY A 501      -2.999  28.339  -4.730  1.00 10.00     0.274 HD
HETATM   10  H3  GLY A 501      -3.071  29.564  -3.951  1.00 10.00     0.274 HD
ENDBRANCH   6   7
ENDBRANCH   3   6
ENDBRANCH   1   2
BRANCH   1  11
HETATM   11  C   TYR A 502      -0.755  30.002  -8.541  1.00 10.00     0.197 C 
HETATM   12  O   TYR A 502       0.084  29.095  -8.427  1.00 10.00    -0.646 OA
HETATM   13  OXT TYR A 502      -0.541  31.247  -8.157  1.00 10.00    -0.646 OA
ENDBRANCH   1  11
BRANCH   1  14
HETATM   14  CB  TYR A 502      -2.536  30.638 -10.331  1.00 10.00     0.074 C 
BRANCH  14  15
HETATM   15  CG  TYR A 502      -2.016  30.131 -11.682  1.00 10.00    -0.056 A 
HETATM   16  CD1 TYR A 502      -0.712  30.494 -12.060  1.00 10.00     0.010 A 
HETATM   17  CE1 TYR A 502      -0.212  30.028 -13.345  1.00 10.00     0.037 A 
HETATM   18  CZ  TYR A 502      -1.033  29.327 -14.161  1.00 10.00     0.065 A 
HETATM   19  CE2 TYR A 502      -2.333  28.952 -13.800  1.00 10.00     0.037 A 
HETATM   20  CD2 TYR A 502      -2.812  29.412 -12.538  1.00 10.00     0.010 A 
BRANCH  18  21
HETATM   21  OH  TYR A 502      -0.570  28.906 -15.388  1.00 10.00    -0.361 OA
HETATM   22  HH  TYR A 502      -1.177  28.485 -15.787  1.00 10.00     0.217 HD
ENDBRANCH  18  21
ENDBRANCH  14  15
ENDBRANCH   1  14
TORSDOF 7
