REMARK  11 active torsions:
REMARK  status: ('A' for Active; 'I' for Inactive)
REMARK    1  A    between atoms: N_1  and  CA_2 
REMARK    2  A    between atoms: CA_2  and  C_3 
REMARK    3  A    between atoms: CA_2  and  CB_5 
REMARK       I    between atoms: C_3  and  N_12 
REMARK    4  A    between atoms: CB_5  and  CG_6 
REMARK    5  A    between atoms: CG_6  and  SD_7 
REMARK    6  A    between atoms: N_12  and  CA_13 
REMARK    7  A    between atoms: CA_13  and  C_14 
REMARK       I    between atoms: C_14  and  N_18 
REMARK    8  A    between atoms: N_18  and  CA_19 
REMARK    9  A    between atoms: CA_19  and  C_20 
REMARK   10  A    between atoms: CA_19  and  CB_22 
REMARK   11  A    between atoms: CB_22  and  OG_23 
ROOT
ATOM      1  C   MET F   1       2.764  59.192  80.082  1.00 63.86     0.249 C 
ATOM      2  O   MET F   1       3.119  58.206  79.428  1.00 63.40    -0.271 OA
ATOM      3  N   ALA F   2       2.193  60.255  79.517  1.00107.99    -0.346 N 
ATOM      4  H   ALA F   2       1.925  60.948  79.950  1.00107.99     0.163 HD
ENDROOT
BRANCH   3   5
ATOM      5  CA  ALA F   2       1.976  60.317  78.073  1.00108.71     0.172 C 
ATOM      6  CB  ALA F   2       0.507  60.049  77.742  1.00102.49     0.042 C 
BRANCH   5   7
ATOM      7  C   ALA F   2       2.398  61.648  77.468  1.00108.72     0.240 C 
ATOM      8  N   SER F   3       2.659  61.605  76.164  1.00165.57    -0.343 N 
ATOM      9  H   SER F   3       2.600  60.884  75.700  1.00165.57     0.163 HD
ATOM     10  O   ALA F   2       2.476  62.670  78.154  1.00108.45    -0.271 OA
BRANCH   8  11
ATOM     11  CA  SER F   3       3.070  62.764  75.384  1.00165.78     0.209 C 
BRANCH  11  12
ATOM     12  C   SER F   3       3.949  63.730  76.177  1.00165.56     0.198 C 
ATOM     13  O   SER F   3       4.882  64.324  75.634  1.00164.94    -0.646 OA
ATOM     14  OXT SER F   3       3.676  63.975  77.366  1.00118.74    -0.646 OA
ENDBRANCH  11  12
BRANCH  11  15
ATOM     15  CB  SER F   3       1.827  63.489  74.862  1.00113.97     0.200 C 
BRANCH  15  16
ATOM     16  OG  SER F   3       0.826  62.565  74.450  1.00114.22    -0.398 OA
ATOM     17  HG  SER F   3       0.155  62.985  74.170  1.00114.22     0.209 HD
ENDBRANCH  15  16
ENDBRANCH  11  15
ENDBRANCH   8  11
ENDBRANCH   5   7
ENDBRANCH   3   5
BRANCH   1  18
ATOM     18  CA  MET F   1       2.933  59.234  81.612  1.00 62.90     0.275 C 
BRANCH  18  19
ATOM     19  N   MET F   1       4.165  58.644  82.117  1.00 61.98    -0.066 N 
ATOM     20  H1  MET F   1       4.164  58.670  83.007  1.00 61.98     0.275 HD
ATOM     21  H2  MET F   1       4.223  57.798  81.845  1.00 61.98     0.275 HD
ATOM     22  H3  MET F   1       4.862  59.103  81.808  1.00 61.98     0.275 HD
ENDBRANCH  18  19
BRANCH  18  23
ATOM     23  CB  MET F   1       2.801  60.679  82.109  1.00 75.38     0.053 C 
BRANCH  23  24
ATOM     24  CG  MET F   1       2.027  60.823  83.423  1.00 74.73     0.076 C 
BRANCH  24  25
ATOM     25  SD  MET F   1       1.183  62.437  83.605  1.00 74.60    -0.173 SA
ATOM     26  CE  MET F   1      -0.242  62.208  82.609  1.00 70.92     0.089 C 
ENDBRANCH  24  25
ENDBRANCH  23  24
ENDBRANCH  18  23
ENDBRANCH   1  18
TORSDOF 11
