REMARK  7 active torsions:
REMARK  status: ('A' for Active; 'I' for Inactive)
REMARK    1  A    between atoms: N_1  and  CA_2 
REMARK    2  A    between atoms: CA_2  and  C_3 
REMARK    3  A    between atoms: CA_2  and  CB_5 
REMARK       I    between atoms: C_3  and  N_12 
REMARK    4  A    between atoms: CB_5  and  CG1_6 
REMARK    5  A    between atoms: N_12  and  CA_13 
REMARK    6  A    between atoms: CA_13  and  C_14 
REMARK    7  A    between atoms: CA_13  and  CB_16 
ROOT
HETATM    1  C   ILE Z1016      21.106  64.975  12.812  1.00 25.98     0.249 C 
HETATM    2  O   ILE Z1016      21.170  64.607  11.602  1.00 25.98    -0.271 OA
HETATM    3  N   VAL Z1017      22.121  65.461  13.567  1.00 26.46    -0.344 N 
HETATM    4  H   VAL Z1017      21.989  65.813  14.341  1.00 26.46     0.163 HD
ENDROOT
BRANCH   1   5
HETATM    5  CA  ILE Z1016      19.718  64.973  13.477  1.00 25.98     0.278 C 
BRANCH   5   6
HETATM    6  N   ILE Z1016      18.821  65.850  12.695  1.00 25.98    -0.066 N 
HETATM    7  H1  ILE Z1016      18.247  66.253  13.243  1.00 25.98     0.275 HD
HETATM    8  H2  ILE Z1016      19.304  66.464  12.268  1.00 25.98     0.275 HD
HETATM    9  H3  ILE Z1016      18.371  65.362  12.102  1.00 25.98     0.275 HD
ENDBRANCH   5   6
BRANCH   5  10
HETATM   10  CB  ILE Z1016      19.198  63.496  13.574  1.00 25.98     0.021 C 
HETATM   11  CG2 ILE Z1016      20.247  62.574  14.240  1.00 20.29     0.012 C 
BRANCH  10  12
HETATM   12  CG1 ILE Z1016      17.794  63.302  14.254  1.00 20.29     0.002 C 
HETATM   13  CD1 ILE Z1016      17.897  63.490  15.785  1.00 20.29     0.005 C 
ENDBRANCH  10  12
ENDBRANCH   5  10
ENDBRANCH   1   5
BRANCH   3  14
HETATM   14  CA  VAL Z1017      23.574  65.453  13.168  1.00 26.46     0.189 C 
BRANCH  14  15
HETATM   15  C   VAL Z1017      24.325  64.210  13.664  1.00 26.46     0.197 C 
HETATM   16  O   VAL Z1017      24.141  63.823  14.856  1.00 26.46    -0.646 OA
HETATM   17  OXT VAL Z1017      24.809  63.389  12.835  1.00 31.30    -0.646 OA
ENDBRANCH  14  15
BRANCH  14  18
HETATM   18  CB  VAL Z1017      24.314  66.596  13.801  1.00 26.46     0.010 C 
HETATM   19  CG1 VAL Z1017      25.732  66.580  13.231  1.00 20.78     0.012 C 
HETATM   20  CG2 VAL Z1017      23.631  67.949  13.558  1.00 20.78     0.012 C 
ENDBRANCH  14  18
ENDBRANCH   3  14
TORSDOF 7
