REMARK  9 active torsions:
REMARK  status: ('A' for Active; 'I' for Inactive)
REMARK       I    between atoms: N_1  and  C_18 
REMARK    1  A    between atoms: N_1  and  CA_2 
REMARK    2  A    between atoms: CA_2  and  CB_5 
REMARK    3  A    between atoms: CA_2  and  C_3 
REMARK    4  A    between atoms: CB_5  and  CG_6 
REMARK    5  A    between atoms: CZ_11  and  OH_12 
REMARK       I    between atoms: N_16  and  C_25 
REMARK    6  A    between atoms: CA_17  and  C_18 
REMARK       I    between atoms: N_23  and  C_31 
REMARK    7  A    between atoms: N_23  and  CA_24 
REMARK    8  A    between atoms: CA_24  and  C_25 
REMARK       I    between atoms: N_29  and  C_36 
REMARK    9  A    between atoms: CA_30  and  C_31 
ROOT
ATOM      1  N   PRO P   2     -15.917  25.457  23.843  1.00 14.82    -0.337 N 
ATOM      2  CA  PRO P   2     -14.855  24.457  23.932  1.00 14.93     0.179 C 
ATOM      3  CB  PRO P   2     -13.614  25.203  24.383  1.00 16.92     0.037 C 
ATOM      4  CG  PRO P   2     -13.995  26.661  24.483  1.00 18.84     0.022 C 
ATOM      5  CD  PRO P   2     -15.517  26.755  24.422  1.00 20.22     0.127 C 
ATOM      6  C   ALA P   3     -17.073  25.156  23.248  1.00 17.18     0.243 C 
ATOM      7  O   ALA P   3     -17.363  24.033  22.767  1.00 13.58    -0.271 OA
ENDROOT
BRANCH   2   8
ATOM      8  C   PRO P   2     -15.297  23.396  24.920  1.00 18.07     0.241 C 
ATOM      9  N   TYR P   1     -15.105  22.141  24.572  1.00 10.00    -0.344 N 
ATOM     10  H   TYR P   1     -14.781  21.869  23.823  1.00 10.00     0.163 HD
ATOM     11  O   PRO P   2     -15.840  23.769  26.003  1.00 18.25    -0.271 OA
BRANCH   9  12
ATOM     12  CA  TYR P   1     -15.474  21.088  25.545  1.00 13.52     0.189 C 
BRANCH  12  13
ATOM     13  CB  TYR P   1     -16.106  19.937  24.803  1.00 19.13     0.074 C 
BRANCH  13  14
ATOM     14  CG  TYR P   1     -17.485  20.201  24.259  1.00 19.60    -0.056 A 
ATOM     15  CD1 TYR P   1     -18.361  21.122  24.831  1.00 21.46     0.010 A 
ATOM     16  CE1 TYR P   1     -19.654  21.321  24.296  1.00 23.96     0.037 A 
ATOM     17  CZ  TYR P   1     -20.055  20.568  23.207  1.00 27.70     0.065 A 
ATOM     18  CE2 TYR P   1     -19.190  19.641  22.620  1.00 27.12     0.037 A 
ATOM     19  CD2 TYR P   1     -17.912  19.453  23.160  1.00 19.18     0.010 A 
BRANCH  17  20
ATOM     20  OH  TYR P   1     -21.294  20.692  22.625  1.00 32.50    -0.361 OA
ATOM     21  HH  TYR P   1     -21.888  20.497  23.186  1.00 32.50     0.217 HD
ENDBRANCH  17  20
ENDBRANCH  13  14
ENDBRANCH  12  13
BRANCH  12  22
ATOM     22  C   TYR P   1     -14.221  20.706  26.385  1.00 14.95     0.197 C 
ATOM     23  O   TYR P   1     -14.223  19.525  26.889  1.00 13.05    -0.646 OA
ATOM     24  OXT TYR P   1     -13.316  21.540  26.815  1.00 12.36    -0.646 OA
ENDBRANCH  12  22
ENDBRANCH   9  12
ENDBRANCH   2   8
BRANCH   6  25
ATOM     25  CA  ALA P   3     -18.075  26.296  23.225  1.00 19.37     0.172 C 
ATOM     26  CB  ALA P   3     -18.876  26.263  24.529  1.00 20.42     0.042 C 
BRANCH  25  27
ATOM     27  N   ALA P   3     -18.997  26.128  22.082  1.00 19.05    -0.346 N 
ATOM     28  H   ALA P   3     -19.186  25.307  21.908  1.00 19.05     0.163 HD
ATOM     29  C   PRO P   4     -19.483  27.143  21.394  1.00 21.72     0.241 C 
ATOM     30  O   PRO P   4     -19.224  28.362  21.661  1.00 18.44    -0.271 OA
BRANCH  29  31
ATOM     31  CA  PRO P   4     -20.407  26.738  20.273  1.00 25.21     0.179 C 
ATOM     32  N   PRO P   4     -21.329  27.850  19.994  1.00 32.27    -0.339 N 
ATOM     33  CD  PRO P   4     -21.023  28.521  18.708  1.00 30.21     0.127 C 
ATOM     34  C   ACE P   5     -22.234  28.182  20.935  1.00 41.02     0.216 C 
ATOM     35  CG  PRO P   4     -19.728  27.829  18.250  1.00 29.86     0.022 C 
ATOM     36  CB  PRO P   4     -19.754  26.479  18.924  1.00 29.41     0.037 C 
ATOM     37  O   ACE P   5     -22.278  27.644  22.056  1.00 36.79    -0.274 OA
ATOM     38  CH3 ACE P   5     -23.206  29.253  20.528  1.00 44.01     0.117 C 
ENDBRANCH  29  31
ENDBRANCH  25  27
ENDBRANCH   6  25
TORSDOF 9
