REMARK  10 active torsions:
REMARK  status: ('A' for Active; 'I' for Inactive)
REMARK    1  A    between atoms: N_1  and  CA_2 
REMARK    2  A    between atoms: CA_2  and  C_3 
REMARK    3  A    between atoms: CA_2  and  CB_5 
REMARK       I    between atoms: C_3  and  N_11 
REMARK    4  A    between atoms: N_11  and  CA_12 
REMARK    5  A    between atoms: CA_12  and  C_13 
REMARK    6  A    between atoms: CA_12  and  CB_15 
REMARK    7  A    between atoms: CB_15  and  CG_16 
REMARK    8  A    between atoms: CG_16  and  CD_17 
REMARK    9  A    between atoms: CD_17  and  CE_18 
REMARK   10  A    between atoms: CE_18  and  NZ_19 
ROOT
HETATM    1  C   VAL E1322      37.884  41.618  -3.599  1.00 68.39     0.249 C 
HETATM    2  O   VAL E1322      38.953  42.165  -3.667  1.00 21.34    -0.271 OA
HETATM    3  N   LYS E1323      37.771  40.284  -3.763  1.00 24.29    -0.345 N 
HETATM    4  H   LYS E1323      37.009  39.887  -3.739  1.00 24.29     0.163 HD
ENDROOT
BRANCH   3   5
HETATM    5  CA  LYS E1323      38.936  39.307  -4.008  1.00 35.31     0.185 C 
BRANCH   5   6
HETATM    6  C   LYS E1323      38.768  38.247  -5.148  1.00 31.13     0.196 C 
HETATM    7  O   LYS E1323      37.580  38.233  -5.689  1.00 27.62    -0.646 OA
HETATM    8  OXT LYS E1323      39.804  37.557  -5.482  1.00100.00    -0.646 OA
ENDBRANCH   5   6
BRANCH   5   9
HETATM    9  CB  LYS E1323      39.396  38.642  -2.738  1.00 34.48     0.036 C 
BRANCH   9  10
HETATM   10  CG  LYS E1323      38.307  37.936  -2.011  1.00 39.74     0.004 C 
BRANCH  10  11
HETATM   11  CD  LYS E1323      38.970  36.886  -1.176  1.00 52.87     0.027 C 
BRANCH  11  12
HETATM   12  CE  LYS E1323      38.645  35.509  -1.680  1.00 74.69     0.229 C 
BRANCH  12  13
HETATM   13  NZ  LYS E1323      37.278  35.119  -1.325  1.00 65.28    -0.079 N 
HETATM   14  HZ1 LYS E1323      37.301  34.402  -0.798  1.00 65.28     0.274 HD
HETATM   15  HZ2 LYS E1323      36.880  35.790  -0.897  1.00 65.28     0.274 HD
HETATM   16  HZ3 LYS E1323      36.822  34.928  -2.065  1.00 65.28     0.274 HD
ENDBRANCH  12  13
ENDBRANCH  11  12
ENDBRANCH  10  11
ENDBRANCH   9  10
ENDBRANCH   5   9
ENDBRANCH   3   5
BRANCH   1  17
HETATM   17  CA  VAL E1322      36.635  42.440  -3.303  1.00 27.04     0.278 C 
BRANCH  17  18
HETATM   18  N   VAL E1322      35.454  41.874  -3.978  1.00 24.29    -0.066 N 
HETATM   19  H1  VAL E1322      34.742  42.378  -3.803  1.00 24.29     0.275 HD
HETATM   20  H2  VAL E1322      35.595  41.855  -4.857  1.00 24.29     0.275 HD
HETATM   21  H3  VAL E1322      35.311  41.047  -3.683  1.00 24.29     0.275 HD
ENDBRANCH  17  18
BRANCH  17  22
HETATM   22  CB  VAL E1322      36.553  42.741  -1.798  1.00 26.94     0.017 C 
HETATM   23  CG1 VAL E1322      36.660  41.454  -0.955  1.00 31.09     0.012 C 
HETATM   24  CG2 VAL E1322      37.585  43.877  -1.388  1.00 18.44     0.012 C 
ENDBRANCH  17  22
ENDBRANCH   1  17
TORSDOF 10
